

        *** GPGPU-Sim Simulator Version 3.2.2  [build 17315] ***


GPGPU-Sim PTX: simulation mode 0 (can change with PTX_SIM_MODE_FUNC environment variable:
               1=functional simulation only, 0=detailed performance simulator)
GPGPU-Sim: Configuration options:

-network_mode                           1 # Interconnection network mode
-inter_config_file   config_fermi_islip.icnt # Interconnection network config file
-gpgpu_ptx_use_cuobjdump                    1 # Use cuobjdump to extract ptx and sass from binaries
-gpgpu_experimental_lib_support                    0 # Try to extract code from cuda libraries [Broken because of unknown cudaGetExportTable]
-gpgpu_ptx_convert_to_ptxplus                    1 # Convert SASS (native ISA) to ptxplus and run ptxplus
-gpgpu_ptx_force_max_capability                   20 # Force maximum compute capability
-gpgpu_ptx_inst_debug_to_file                    0 # Dump executed instructions' debug information to file
-gpgpu_ptx_inst_debug_file       inst_debug.txt # Executed instructions' debug output file
-gpgpu_ptx_inst_debug_thread_uid                    1 # Thread UID for executed instructions' debug output
-gpgpu_simd_model                       1 # 1 = post-dominator
-gpgpu_shader_core_pipeline              1536:32 # shader core pipeline config, i.e., {<nthread>:<warpsize>}
-gpgpu_tex_cache:l1  4:128:24,L:R:m:N,F:128:4,128:2 # per-shader L1 texture cache  (READ-ONLY) config  {<nsets>:<bsize>:<assoc>,<rep>:<wr>:<alloc>:<wr_alloc>,<mshr>:<N>:<merge>,<mq>:<rf>}
-gpgpu_const_cache:l1 64:64:2,L:R:f:N,A:2:32,4 # per-shader L1 constant memory cache  (READ-ONLY) config  {<nsets>:<bsize>:<assoc>,<rep>:<wr>:<alloc>:<wr_alloc>,<mshr>:<N>:<merge>,<mq>} 
-gpgpu_cache:il1     4:128:4,L:R:f:N,A:2:32,4 # shader L1 instruction cache config  {<nsets>:<bsize>:<assoc>,<rep>:<wr>:<alloc>:<wr_alloc>,<mshr>:<N>:<merge>,<mq>} 
-gpgpu_cache:dl1     32:128:4,L:L:m:N,A:32:8,8 # per-shader L1 data cache config  {<nsets>:<bsize>:<assoc>,<rep>:<wr>:<alloc>:<wr_alloc>,<mshr>:<N>:<merge>,<mq> | none}
-gpgpu_cache:dl1PrefL1                 none # per-shader L1 data cache config  {<nsets>:<bsize>:<assoc>,<rep>:<wr>:<alloc>:<wr_alloc>,<mshr>:<N>:<merge>,<mq> | none}
-gpgpu_cache:dl1PreShared                 none # per-shader L1 data cache config  {<nsets>:<bsize>:<assoc>,<rep>:<wr>:<alloc>:<wr_alloc>,<mshr>:<N>:<merge>,<mq> | none}
-gmem_skip_L1D                          0 # global memory access skip L1D cache (implements -Xptxas -dlcm=cg, default=no skip)
-gpgpu_perfect_mem                      0 # enable perfect memory mode (no cache miss)
-n_regfile_gating_group                    4 # group of lanes that should be read/written together)
-gpgpu_clock_gated_reg_file                    0 # enable clock gated reg file for power calculations
-gpgpu_clock_gated_lanes                    0 # enable clock gated lanes for power calculations
-gpgpu_shader_registers                32768 # Number of registers per shader core. Limits number of concurrent CTAs. (default 8192)
-gpgpu_shader_cta                       8 # Maximum number of concurrent CTAs in shader (default 8)
-gpgpu_n_clusters                      15 # number of processing clusters
-gpgpu_n_cores_per_cluster                    1 # number of simd cores per cluster
-gpgpu_n_cluster_ejection_buffer_size                    8 # number of packets in ejection buffer
-gpgpu_n_ldst_response_buffer_size                    2 # number of response packets in ld/st unit ejection buffer
-gpgpu_shmem_size                   16384 # Size of shared memory per shader core (default 16kB)
-gpgpu_shmem_size                   49152 # Size of shared memory per shader core (default 16kB)
-gpgpu_shmem_size_PrefL1                16384 # Size of shared memory per shader core (default 16kB)
-gpgpu_shmem_size_PrefShared                16384 # Size of shared memory per shader core (default 16kB)
-gpgpu_shmem_num_banks                   32 # Number of banks in the shared memory in each shader core (default 16)
-gpgpu_shmem_limited_broadcast                    0 # Limit shared memory to do one broadcast per cycle (default on)
-gpgpu_shmem_warp_parts                    1 # Number of portions a warp is divided into for shared memory bank conflict check 
-gpgpu_warpdistro_shader                   -1 # Specify which shader core to collect the warp size distribution from
-gpgpu_warp_issue_shader                    0 # Specify which shader core to collect the warp issue distribution from
-gpgpu_local_mem_map                    1 # Mapping from local memory space address to simulated GPU physical address space (default = enabled)
-gpgpu_num_reg_banks                   16 # Number of register banks (default = 8)
-gpgpu_reg_bank_use_warp_id                    0 # Use warp ID in mapping registers to banks (default = off)
-gpgpu_operand_collector_num_units_sp                    6 # number of collector units (default = 4)
-gpgpu_operand_collector_num_units_sfu                    8 # number of collector units (default = 4)
-gpgpu_operand_collector_num_units_mem                    2 # number of collector units (default = 2)
-gpgpu_operand_collector_num_units_gen                    0 # number of collector units (default = 0)
-gpgpu_operand_collector_num_in_ports_sp                    2 # number of collector unit in ports (default = 1)
-gpgpu_operand_collector_num_in_ports_sfu                    1 # number of collector unit in ports (default = 1)
-gpgpu_operand_collector_num_in_ports_mem                    1 # number of collector unit in ports (default = 1)
-gpgpu_operand_collector_num_in_ports_gen                    0 # number of collector unit in ports (default = 0)
-gpgpu_operand_collector_num_out_ports_sp                    2 # number of collector unit in ports (default = 1)
-gpgpu_operand_collector_num_out_ports_sfu                    1 # number of collector unit in ports (default = 1)
-gpgpu_operand_collector_num_out_ports_mem                    1 # number of collector unit in ports (default = 1)
-gpgpu_operand_collector_num_out_ports_gen                    0 # number of collector unit in ports (default = 0)
-gpgpu_coalesce_arch                   13 # Coalescing arch (default = 13, anything else is off for now)
-gpgpu_num_sched_per_core                    2 # Number of warp schedulers per core
-gpgpu_max_insn_issue_per_warp                    1 # Max number of instructions that can be issued per warp in one cycle by scheduler
-gpgpu_simt_core_sim_order                    1 # Select the simulation order of cores in a cluster (0=Fix, 1=Round-Robin)
-gpgpu_pipeline_widths        2,1,1,2,1,1,2 # Pipeline widths ID_OC_SP,ID_OC_SFU,ID_OC_MEM,OC_EX_SP,OC_EX_SFU,OC_EX_MEM,EX_WB
-gpgpu_num_sp_units                     2 # Number of SP units (default=1)
-gpgpu_num_sfu_units                    1 # Number of SF units (default=1)
-gpgpu_num_mem_units                    1 # Number if ldst units (default=1) WARNING: not hooked up to anything
-gpgpu_scheduler                      gto # Scheduler configuration: < lrr | gto | two_level_active > If two_level_active:<num_active_warps>:<inner_prioritization>:<outer_prioritization>For complete list of prioritization values see shader.h enum scheduler_prioritization_typeDefault: gto
-gpgpu_dram_scheduler                    1 # 0 = fifo, 1 = FR-FCFS (defaul)
-gpgpu_dram_partition_queues              8:8:8:8 # i2$:$2d:d2$:$2i
-l2_ideal                               0 # Use a ideal L2 cache that always hit
-gpgpu_cache:dl2     64:128:8,L:B:m:W,A:32:4,4:0,32 # unified banked L2 data cache config  {<nsets>:<bsize>:<assoc>,<rep>:<wr>:<alloc>:<wr_alloc>,<mshr>:<N>:<merge>,<mq>}
-gpgpu_cache:dl2_texture_only                    0 # L2 cache used for texture only
-gpgpu_n_mem                            6 # number of memory modules (e.g. memory controllers) in gpu
-gpgpu_n_sub_partition_per_mchannel                    2 # number of memory subpartition in each memory module
-gpgpu_n_mem_per_ctrlr                    2 # number of memory chips per memory controller
-gpgpu_memlatency_stat                   14 # track and display latency statistics 0x2 enables MC, 0x4 enables queue logs
-gpgpu_frfcfs_dram_sched_queue_size                   16 # 0 = unlimited (default); # entries per chip
-gpgpu_dram_return_queue_size                  116 # 0 = unlimited (default); # entries per chip
-gpgpu_dram_buswidth                    4 # default = 4 bytes (8 bytes per cycle at DDR)
-gpgpu_dram_burst_length                    8 # Burst length of each DRAM request (default = 4 data bus cycle)
-dram_data_command_freq_ratio                    4 # Frequency ratio between DRAM data bus and command bus (default = 2 times, i.e. DDR)
-gpgpu_dram_timing_opt nbk=16:CCD=2:RRD=6:RCD=12:RAS=28:RP=12:RC=40: CL=12:WL=4:CDLR=5:WR=12:nbkgrp=4:CCDL=3:RTPL=2 # DRAM timing parameters = {nbk:tCCD:tRRD:tRCD:tRAS:tRP:tRC:CL:WL:tCDLR:tWR:nbkgrp:tCCDL:tRTPL}
-rop_latency                          120 # ROP queue latency (default 85)
-dram_latency                         100 # DRAM latency (default 30)
-gpgpu_mem_addr_mapping dramid@8;00000000.00000000.00000000.00000000.0000RRRR.RRRRRRRR.BBBCCCCB.CCSSSSSS # mapping memory address to dram model {dramid@<start bit>;<memory address map>}
-gpgpu_mem_addr_test                    0 # run sweep test to check address mapping for aliased address
-gpgpu_mem_address_mask                    1 # 0 = old addressing mask, 1 = new addressing mask, 2 = new add. mask + flipped bank sel and chip sel bits
-gpuwattch_xml_file  gpuwattch_gtx480.xml # GPUWattch XML file
-power_simulation_enabled                    1 # Turn on power simulator (1=On, 0=Off)
-power_per_cycle_dump                    0 # Dump detailed power output each cycle
-power_trace_enabled                    0 # produce a file for the power trace (1=On, 0=Off)
-power_trace_zlevel                     6 # Compression level of the power trace output log (0=no comp, 9=highest)
-steady_power_levels_enabled                    0 # produce a file for the steady power levels (1=On, 0=Off)
-steady_state_definition                  8:4 # allowed deviation:number of samples
-gpgpu_max_cycle                        0 # terminates gpu simulation early (0 = no limit)
-gpgpu_max_insn                         0 # terminates gpu simulation early (0 = no limit)
-gpgpu_max_cta                          0 # terminates gpu simulation early (0 = no limit)
-gpgpu_runtime_stat                   500 # display runtime statistics such as dram utilization {<freq>:<flag>}
-liveness_message_freq                    1 # Minimum number of seconds between simulation liveness messages (0 = always print)
-gpgpu_flush_l1_cache                    0 # Flush L1 cache at the end of each kernel call
-gpgpu_flush_l2_cache                    0 # Flush L2 cache at the end of each kernel call
-gpgpu_deadlock_detect                    1 # Stop the simulation at deadlock (1=on (default), 0=off)
-gpgpu_ptx_instruction_classification                    0 # if enabled will classify ptx instruction types per kernel (Max 255 kernels now)
-gpgpu_ptx_sim_mode                     0 # Select between Performance (default) or Functional simulation (1)
-gpgpu_clock_domains 700.0:700.0:700.0:924.0 # Clock Domain Frequencies in MhZ {<Core Clock>:<ICNT Clock>:<L2 Clock>:<DRAM Clock>}
-gpgpu_max_concurrent_kernel                    8 # maximum kernels that can run concurrently on GPU
-gpgpu_cflog_interval                    0 # Interval between each snapshot in control flow logger
-visualizer_enabled                     0 # Turn on visualizer output (1=On, 0=Off)
-visualizer_outputfile                 NULL # Specifies the output log file for visualizer
-visualizer_zlevel                      6 # Compression level of the visualizer output log (0=no comp, 9=highest)
-trace_enabled                          0 # Turn on traces
-trace_components                    none # comma seperated list of traces to enable. Complete list found in trace_streams.tup. Default none
-trace_sampling_core                    0 # The core which is printed using CORE_DPRINTF. Default 0
-trace_sampling_memory_partition                   -1 # The memory partition which is printed using MEMPART_DPRINTF. Default -1 (i.e. all)
-enable_ptx_file_line_stats                    1 # Turn on PTX source line statistic profiling. (1 = On)
-ptx_line_stats_filename gpgpu_inst_stats.txt # Output file for PTX source line statistics.
-save_embedded_ptx                      0 # saves ptx files embedded in binary as <n>.ptx
-keep                                   0 # keep intermediate files created by GPGPU-Sim when interfacing with external programs
-gpgpu_ptx_save_converted_ptxplus                    1 # Saved converted ptxplus to a file
-ptx_opcode_latency_int         4,13,4,5,145 # Opcode latencies for integers <ADD,MAX,MUL,MAD,DIV>Default 1,1,19,25,145
-ptx_opcode_latency_fp          4,13,4,5,39 # Opcode latencies for single precision floating points <ADD,MAX,MUL,MAD,DIV>Default 1,1,1,1,30
-ptx_opcode_latency_dp         8,19,8,8,330 # Opcode latencies for double precision floating points <ADD,MAX,MUL,MAD,DIV>Default 8,8,8,8,335
-ptx_opcode_initiation_int            1,2,2,1,8 # Opcode initiation intervals for integers <ADD,MAX,MUL,MAD,DIV>Default 1,1,4,4,32
-ptx_opcode_initiation_fp            1,2,1,1,4 # Opcode initiation intervals for single precision floating points <ADD,MAX,MUL,MAD,DIV>Default 1,1,1,1,5
-ptx_opcode_initiation_dp         8,16,8,8,130 # Opcode initiation intervals for double precision floating points <ADD,MAX,MUL,MAD,DIV>Default 8,8,8,8,130
DRAM Timing Options:
nbk                                    16 # number of banks
CCD                                     2 # column to column delay
RRD                                     6 # minimal delay between activation of rows in different banks
RCD                                    12 # row to column delay
RAS                                    28 # time needed to activate row
RP                                     12 # time needed to precharge (deactivate) row
RC                                     40 # row cycle time
CDLR                                    5 # switching from write to read (changes tWTR)
WR                                     12 # last data-in to row precharge
CL                                     12 # CAS latency
WL                                      4 # Write latency
nbkgrp                                  4 # number of bank groups
CCDL                                    3 # column to column delay between accesses to different bank groups
RTPL                                    2 # read to precharge delay between accesses to different bank groups
Total number of memory sub partition = 12
addr_dec_mask[CHIP]  = 0000000000000000 	high:64 low:0
addr_dec_mask[BK]    = 000000000000e100 	high:16 low:8
addr_dec_mask[ROW]   = 000000000fff0000 	high:28 low:16
addr_dec_mask[COL]   = 0000000000001eff 	high:13 low:0
addr_dec_mask[BURST] = 000000000000003f 	high:6 low:0
sub_partition_id_mask = 0000000000000100
GPGPU-Sim uArch: clock freqs: 700000000.000000:700000000.000000:700000000.000000:924000000.000000
GPGPU-Sim uArch: clock periods: 0.00000000142857142857:0.00000000142857142857:0.00000000142857142857:0.00000000108225108225
*** Initializing Memory Statistics ***
GPGPU-Sim uArch: interconnect node map (shaderID+MemID to icntID)
GPGPU-Sim uArch: Memory nodes ID start from index: 15
GPGPU-Sim uArch:    0   1   2   3   4
GPGPU-Sim uArch:    5   6   7   8   9
GPGPU-Sim uArch:   10  11  12  13  14
GPGPU-Sim uArch:   15  16  17  18  19
GPGPU-Sim uArch:   20  21  22  23  24
GPGPU-Sim uArch:   25  26
GPGPU-Sim uArch: interconnect node reverse map (icntID to shaderID+MemID)
GPGPU-Sim uArch: Memory nodes start from ID: 15
GPGPU-Sim uArch:    0   1   2   3   4
GPGPU-Sim uArch:    5   6   7   8   9
GPGPU-Sim uArch:   10  11  12  13  14
GPGPU-Sim uArch:   15  16  17  18  19
GPGPU-Sim uArch:   20  21  22  23  24
GPGPU-Sim uArch:   25  26
890eb3ed5f29568b94c9d939ed1565b0  /home/archit/Work/1_Benchmarks/Benchmarks/rodinia_3.0/cuda/lud/cuda/lud_cuda
GPGPU-Sim uArch: performance model initialization complete.
GPGPU-Sim PTX: __cudaRegisterFatBinary, fat_cubin_handle = 1, filename=lud.cu
self exe links to: /home/archit/Work/1_Benchmarks/Benchmarks/rodinia_3.0/cuda/lud/cuda/lud_cuda
Running md5sum using "md5sum /home/archit/Work/1_Benchmarks/Benchmarks/rodinia_3.0/cuda/lud/cuda/lud_cuda "
Running cuobjdump using "$CUDA_INSTALL_PATH/bin/cuobjdump -ptx -elf -sass /home/archit/Work/1_Benchmarks/Benchmarks/rodinia_3.0/cuda/lud/cuda/lud_cuda > _cuobjdump_complete_output_ZcAQvA"
Parsing file _cuobjdump_complete_output_ZcAQvA
######### cuobjdump parser ########
## Adding new section PTX
Adding ptx filename: _cuobjdump_1.ptx
Adding arch: sm_13
Adding identifier: lud.cu
## Adding new section ELF
Adding arch: sm_13
Adding identifier: lud.cu
## Adding new section PTX
Adding ptx filename: _cuobjdump_2.ptx
Adding arch: sm_13
Adding identifier: lud_kernel.cu
## Adding new section ELF
Adding arch: sm_13
Adding identifier: lud_kernel.cu
Done parsing!!!
GPGPU-Sim: WARNING: Capability >= 20 are not supported in PTXPlus
	Setting forced_max_capability to 19
GPGPU-Sim PTX: __cudaRegisterFatBinary, fat_cubin_handle = 2, filename=lud_kernel.cu
GPGPU-Sim PTX: __cudaRegisterFunction _Z12lud_internalPfii : hostFun 0x0x401ea0, fat_cubin_handle = 2
GPGPU-Sim PTX: converting EMBEDDED .ptx file to ptxplus 
RUNNING cuobjdump_to_ptxplus ...
Parsing .elf file _cuobjdump_2.elf
()





Finished parsing .elf file _cuobjdump_2.elf
Parsing .ptx file _cuobjdump_2.ptx
Finished parsing .ptx file _cuobjdump_2.ptx
Parsing .sass file _cuobjdump_2.sass
Finished parsing .sass file _cuobjdump_2.sass
DONE. 
GPGPU-Sim PTX: calling cuobjdump_to_ptxplus
commandline: $GPGPUSIM_ROOT/build/$GPGPUSIM_CONFIG/cuobjdump_to_ptxplus/cuobjdump_to_ptxplus _cuobjdump_2.ptx _cuobjdump_2.sass _cuobjdump_2.elf _ptxplus_aT6pF0
GPGPU-Sim PTX: DONE converting EMBEDDED .ptx file to ptxplus 
GPGPU-Sim PTX: allocating constant region for "constant1_Z12lud_diagonalPfii" from 0x100 to 0x104 (global memory space) 1
GPGPU-Sim PTX: allocating constant region for "constant1_Z13lud_perimeterPfii" from 0x108 to 0x110 (global memory space) 2
GPGPU-Sim PTX: allocating constant region for "constant1_Z12lud_internalPfii" from 0x110 to 0x118 (global memory space) 3
GPGPU-Sim PTX: instruction assembly for function '_Z12lud_internalPfii'...   done.
GPGPU-Sim PTX: finding reconvergence points for '_Z12lud_internalPfii'...
GPGPU-Sim PTX: Finding dominators for '_Z12lud_internalPfii'...
GPGPU-Sim PTX: Finding immediate dominators for '_Z12lud_internalPfii'...
GPGPU-Sim PTX: Finding postdominators for '_Z12lud_internalPfii'...
GPGPU-Sim PTX: Finding immediate postdominators for '_Z12lud_internalPfii'...
GPGPU-Sim PTX: pre-decoding instructions for '_Z12lud_internalPfii'...
GPGPU-Sim PTX: reconvergence points for _Z12lud_internalPfii...
GPGPU-Sim PTX: ... end of reconvergence points for _Z12lud_internalPfii
GPGPU-Sim PTX: ... done pre-decoding instructions for '_Z12lud_internalPfii'.
GPGPU-Sim PTX: PTX uses two scalar type intruction with literal operand.
GPGPU-Sim PTX: instruction assembly for function '_Z13lud_perimeterPfii'...   done.
GPGPU-Sim PTX: finding reconvergence points for '_Z13lud_perimeterPfii'...
GPGPU-Sim PTX: Finding dominators for '_Z13lud_perimeterPfii'...
GPGPU-Sim PTX: Finding immediate dominators for '_Z13lud_perimeterPfii'...
GPGPU-Sim PTX: Finding postdominators for '_Z13lud_perimeterPfii'...
GPGPU-Sim PTX: Finding immediate postdominators for '_Z13lud_perimeterPfii'...
GPGPU-Sim PTX: pre-decoding instructions for '_Z13lud_perimeterPfii'...
GPGPU-Sim PTX: reconvergence points for _Z13lud_perimeterPfii...
GPGPU-Sim PTX:  1 (potential) branch divergence @  PC=0x2c8 (_2.ptx:145) @$p1.eq bra l0x000004d0;
GPGPU-Sim PTX:    immediate post dominator      @  PC=0xc48 (_2.ptx:505) l0x000009a8: nop;
GPGPU-Sim PTX:  2 (potential) branch divergence @  PC=0x768 (_2.ptx:322) bra l0x000009a8;
GPGPU-Sim PTX:    immediate post dominator      @  PC=0xc48 (_2.ptx:505) l0x000009a8: nop;
GPGPU-Sim PTX:  3 (potential) branch divergence @  PC=0xc60 (_2.ptx:508) @$p0.eq bra l0x00000a88;
GPGPU-Sim PTX:    immediate post dominator      @  PC=0xed0 (_2.ptx:586) l0x00000c30: nop;
GPGPU-Sim PTX:  4 (potential) branch divergence @  PC=0xc78 (_2.ptx:511) @$p1.ne bra l0x00000a68;
GPGPU-Sim PTX:    immediate post dominator      @  PC=0xd08 (_2.ptx:529) l0x00000a68: add.u32 $r3, $r3, 0x00000001;
GPGPU-Sim PTX:  5 (potential) branch divergence @  PC=0xd00 (_2.ptx:528) @$p1.ne bra l0x00000a38;
GPGPU-Sim PTX:    immediate post dominator      @  PC=0xd08 (_2.ptx:529) l0x00000a68: add.u32 $r3, $r3, 0x00000001;
GPGPU-Sim PTX:  6 (potential) branch divergence @  PC=0xd18 (_2.ptx:531) @$p1.ne bra l0x000009d0;
GPGPU-Sim PTX:    immediate post dominator      @  PC=0xd20 (_2.ptx:532) bra l0x00000c30;
GPGPU-Sim PTX:  7 (potential) branch divergence @  PC=0xd20 (_2.ptx:532) bra l0x00000c30;
GPGPU-Sim PTX:    immediate post dominator      @  PC=0xed0 (_2.ptx:586) l0x00000c30: nop;
GPGPU-Sim PTX:  8 (potential) branch divergence @  PC=0xd60 (_2.ptx:540) @$p1.ne bra l0x00000b98;
GPGPU-Sim PTX:    immediate post dominator      @  PC=0xe68 (_2.ptx:573) l0x00000bc8: shl.b32 $ofs1, $r8, 0x0;
GPGPU-Sim PTX:  9 (potential) branch divergence @  PC=0xe28 (_2.ptx:565) @$p1.ne bra l0x00000b20;
GPGPU-Sim PTX:    immediate post dominator      @  PC=0xe30 (_2.ptx:566) bra l0x00000bc8;
GPGPU-Sim PTX: 10 (potential) branch divergence @  PC=0xe30 (_2.ptx:566) bra l0x00000bc8;
GPGPU-Sim PTX:    immediate post dominator      @  PC=0xe68 (_2.ptx:573) l0x00000bc8: shl.b32 $ofs1, $r8, 0x0;
GPGPU-Sim PTX: 11 (potential) branch divergence @  PC=0xec8 (_2.ptx:585) @$p1.ne bra l0x00000ab8;
GPGPU-Sim PTX:    immediate post dominator      @  PC=0xed0 (_2.ptx:586) l0x00000c30: nop;
GPGPU-Sim PTX: 12 (potential) branch divergence @  PC=0xee0 (_2.ptx:588) @$p0.eq bra l0x00000fe0;
GPGPU-Sim PTX:    immediate post dominator      @ 
GPGPU-Sim PTX: ... end of reconvergence points for _Z13lud_perimeterPfii
GPGPU-Sim PTX: ... done pre-decoding instructions for '_Z13lud_perimeterPfii'.
GPGPU-Sim PTX: instruction assembly for function '_Z12lud_diagonalPfii'...   done.
GPGPU-Sim PTX: finding reconvergence points for '_Z12lud_diagonalPfii'...
GPGPU-Sim PTX: Finding dominators for '_Z12lud_diagonalPfii'...
GPGPU-Sim PTX: Finding immediate dominators for '_Z12lud_diagonalPfii'...
GPGPU-Sim PTX: Finding postdominators for '_Z12lud_diagonalPfii'...
GPGPU-Sim PTX: Finding immediate postdominators for '_Z12lud_diagonalPfii'...
GPGPU-Sim PTX: pre-decoding instructions for '_Z12lud_diagonalPfii'...
GPGPU-Sim PTX: reconvergence points for _Z12lud_diagonalPfii...
GPGPU-Sim PTX:  1 (potential) branch divergence @  PC=0x1920 (_2.ptx:981) @$p1.eq bra l0x00000440;
GPGPU-Sim PTX:    immediate post dominator      @  PC=0x1a38 (_2.ptx:1018) l0x00000440: nop;
GPGPU-Sim PTX:  2 (potential) branch divergence @  PC=0x1930 (_2.ptx:983) @$p1.ne bra l0x000003e8;
GPGPU-Sim PTX:    immediate post dominator      @  PC=0x1a10 (_2.ptx:1012) l0x00000418: mul24.lo.u32 $r2, $r2, 0x00000044;
GPGPU-Sim PTX:  3 (potential) branch divergence @  PC=0x19d0 (_2.ptx:1003) @$p1.ne bra l0x000003a8;
GPGPU-Sim PTX:    immediate post dominator      @  PC=0x19d8 (_2.ptx:1004) bra l0x00000418;
GPGPU-Sim PTX:  4 (potential) branch divergence @  PC=0x19d8 (_2.ptx:1004) bra l0x00000418;
GPGPU-Sim PTX:    immediate post dominator      @  PC=0x1a10 (_2.ptx:1012) l0x00000418: mul24.lo.u32 $r2, $r2, 0x00000044;
GPGPU-Sim PTX:  5 (potential) branch divergence @  PC=0x1a50 (_2.ptx:1021) @$p0.eq bra l0x00000500;
GPGPU-Sim PTX:    immediate post dominator      @  PC=0x1af8 (_2.ptx:1042) l0x00000500: nop;
GPGPU-Sim PTX:  6 (potential) branch divergence @  PC=0x1a68 (_2.ptx:1024) @$p0.ne bra l0x00000500;
GPGPU-Sim PTX:    immediate post dominator      @  PC=0x1af8 (_2.ptx:1042) l0x00000500: nop;
GPGPU-Sim PTX:  7 (potential) branch divergence @  PC=0x1af0 (_2.ptx:1041) @$p0.ne bra l0x000004c0;
GPGPU-Sim PTX:    immediate post dominator      @  PC=0x1af8 (_2.ptx:1042) l0x00000500: nop;
GPGPU-Sim PTX:  8 (potential) branch divergence @  PC=0x1b18 (_2.ptx:1046) @$p0.ne bra l0x00000310;
GPGPU-Sim PTX:    immediate post dominator      @  PC=0x1b20 (_2.ptx:1047) add.u32 $r2, s[0x001c], 0x00000001;
GPGPU-Sim PTX: ... end of reconvergence points for _Z12lud_diagonalPfii
GPGPU-Sim PTX: ... done pre-decoding instructions for '_Z12lud_diagonalPfii'.
GPGPU-Sim PTX: finished parsing EMBEDDED .ptx file _2.ptx
Adding _cuobjdump_2.ptx with cubin handle 2
GPGPU-Sim PTX: extracting embedded .ptx to temporary file "_ptx_Pows1q"
Running: cat _ptx_Pows1q | sed 's/.version 1.5/.version 1.4/' | sed 's/, texmode_independent//' | sed 's/\(\.extern \.const\[1\] .b8 \w\+\)\[\]/\1\[1\]/' | sed 's/const\[.\]/const\[0\]/g' > _ptx2_4RSxnR
GPGPU-Sim PTX: generating ptxinfo using "$CUDA_INSTALL_PATH/bin/ptxas --gpu-name=sm_20 -v _ptx2_4RSxnR --output-file  /dev/null 2> _ptx_Pows1qinfo"
GPGPU-Sim PTX: Kernel '_Z12lud_internalPfii' : regs=14, lmem=0, smem=2048, cmem=48
GPGPU-Sim PTX: Kernel '_Z13lud_perimeterPfii' : regs=32, lmem=0, smem=3072, cmem=56
GPGPU-Sim PTX: Kernel '_Z12lud_diagonalPfii' : regs=23, lmem=0, smem=1024, cmem=48
GPGPU-Sim PTX: removing ptxinfo using "rm -f _ptx_Pows1q _ptx2_4RSxnR _ptx_Pows1qinfo"
GPGPU-Sim PTX: loading globals with explicit initializers... 
GPGPU-Sim PTX: finished loading globals (0 bytes total).
GPGPU-Sim PTX: loading constants with explicit initializers...  done.
GPGPU-Sim PTX: __cudaRegisterFunction _Z13lud_perimeterPfii : hostFun 0x0x401f20, fat_cubin_handle = 2
GPGPU-Sim PTX: __cudaRegisterFunction _Z12lud_diagonalPfii : hostFun 0x0x401fa0, fat_cubin_handle = 2
WG size of kernel = 16 X 16
Generate input matrix internally, size =256
Creating matrix internally size=256
Before LUD

GPGPU-Sim PTX: cudaLaunch for 0x0x401fa0 (mode=performance simulation) on stream 0
GPGPU-Sim PTX: pushing kernel '_Z12lud_diagonalPfii' to stream 0, gridDim= (1,1,1) blockDim = (16,1,1) 
kernel '_Z12lud_diagonalPfii' transfer to GPU hardware scheduler
GPGPU-Sim uArch: Shader 1 bind to kernel 1 '_Z12lud_diagonalPfii'
GPGPU-Sim uArch: CTA/core = 8, limited by: cta_limit
GPGPU-Sim uArch: core:  1, cta: 0 initialized @(1,0)
GPGPU-Sim uArch: cycles simulated: 500  inst.: 32 (ipc= 0.1) sim_rate=32 (inst/sec) elapsed = 0:0:00:01 / Fri Oct 31 16:32:31 2014
GPGPU-Sim PTX: WARNING (_2.ptx:977) ** reading undefined register '$r124' (cuid:0). Setting to 0X00000000. This is okay if you are simulating the native ISA
GPGPU-Sim uArch: Shader 1 finished CTA #0 (15365,0), 0 CTAs running
GPGPU-Sim uArch: Shader 1 empty (release kernel 1 '_Z12lud_diagonalPfii').
GPGPU-Sim uArch: GPU detected kernel '_Z12lud_diagonalPfii' finished on shader 1.
kernel_name = _Z12lud_diagonalPfii 
kernel_launch_uid = 1 
gpu_sim_cycle = 15366
gpu_sim_insn = 19237
gpu_ipc =       1.2519
gpu_tot_sim_cycle = 15366
gpu_tot_sim_insn = 19237
gpu_tot_ipc =       1.2519
gpu_tot_issued_cta = 0
gpu_stall_dramfull = 0
gpu_stall_icnt2sh    = 0
gpu_total_sim_rate=19237

========= Core cache stats =========
L1I_cache:
	L1I_total_cache_accesses = 1501
	L1I_total_cache_misses = 17
	L1I_total_cache_miss_rate = 0.0113
	L1I_total_cache_pending_hits = 0
	L1I_total_cache_reservation_fails = 0
L1D_cache:
	L1D_cache_core[0]: Access = 0, Miss = 0, Miss_rate = -nan, Pending_hits = 0, Reservation_fails = 0
	L1D_cache_core[1]: Access = 31, Miss = 16, Miss_rate = 0.516, Pending_hits = 0, Reservation_fails = 0
	L1D_cache_core[2]: Access = 0, Miss = 0, Miss_rate = -nan, Pending_hits = 0, Reservation_fails = 0
	L1D_cache_core[3]: Access = 0, Miss = 0, Miss_rate = -nan, Pending_hits = 0, Reservation_fails = 0
	L1D_cache_core[4]: Access = 0, Miss = 0, Miss_rate = -nan, Pending_hits = 0, Reservation_fails = 0
	L1D_cache_core[5]: Access = 0, Miss = 0, Miss_rate = -nan, Pending_hits = 0, Reservation_fails = 0
	L1D_cache_core[6]: Access = 0, Miss = 0, Miss_rate = -nan, Pending_hits = 0, Reservation_fails = 0
	L1D_cache_core[7]: Access = 0, Miss = 0, Miss_rate = -nan, Pending_hits = 0, Reservation_fails = 0
	L1D_cache_core[8]: Access = 0, Miss = 0, Miss_rate = -nan, Pending_hits = 0, Reservation_fails = 0
	L1D_cache_core[9]: Access = 0, Miss = 0, Miss_rate = -nan, Pending_hits = 0, Reservation_fails = 0
	L1D_cache_core[10]: Access = 0, Miss = 0, Miss_rate = -nan, Pending_hits = 0, Reservation_fails = 0
	L1D_cache_core[11]: Access = 0, Miss = 0, Miss_rate = -nan, Pending_hits = 0, Reservation_fails = 0
	L1D_cache_core[12]: Access = 0, Miss = 0, Miss_rate = -nan, Pending_hits = 0, Reservation_fails = 0
	L1D_cache_core[13]: Access = 0, Miss = 0, Miss_rate = -nan, Pending_hits = 0, Reservation_fails = 0
	L1D_cache_core[14]: Access = 0, Miss = 0, Miss_rate = -nan, Pending_hits = 0, Reservation_fails = 0
	L1D_total_cache_accesses = 31
	L1D_total_cache_misses = 16
	L1D_total_cache_miss_rate = 0.5161
	L1D_total_cache_pending_hits = 0
	L1D_total_cache_reservation_fails = 0
	L1D_cache_data_port_util = 0.001
	L1D_cache_fill_port_util = 0.001
L1C_cache:
	L1C_total_cache_accesses = 0
	L1C_total_cache_misses = 0
	L1C_total_cache_pending_hits = 0
	L1C_total_cache_reservation_fails = 0
L1T_cache:
	L1T_total_cache_accesses = 0
	L1T_total_cache_misses = 0
	L1T_total_cache_pending_hits = 0
	L1T_total_cache_reservation_fails = 0

Total_core_cache_stats:
	Total_core_cache_stats_breakdown[GLOBAL_ACC_R][MISS] = 16
	Total_core_cache_stats_breakdown[GLOBAL_ACC_W][HIT] = 15
	Total_core_cache_stats_breakdown[INST_ACC_R][HIT] = 1484
	Total_core_cache_stats_breakdown[INST_ACC_R][MISS] = 17
Shader 0 warp_id issue ditsribution:
warp_id:

distro:

gpgpu_n_tot_thrd_icount = 83552
gpgpu_n_tot_w_icount = 2611
gpgpu_n_stall_shd_mem = 504
gpgpu_n_mem_read_local = 0
gpgpu_n_mem_write_local = 0
gpgpu_n_mem_read_global = 16
gpgpu_n_mem_write_global = 15
gpgpu_n_mem_texture = 0
gpgpu_n_mem_const = 0
gpgpu_n_load_insn  = 256
gpgpu_n_store_insn = 240
gpgpu_n_shmem_insn = 3504
gpgpu_n_tex_insn = 0
gpgpu_n_const_mem_insn = 0
gpgpu_n_param_mem_insn = 0
gpgpu_n_shmem_bkconflict = 0
gpgpu_n_cache_bkconflict = 0
gpgpu_n_intrawarp_mshr_merge = 0
gpgpu_n_cmem_portconflict = 0
gpgpu_stall_shd_mem[c_mem][bk_conf] = 0
gpgpu_stall_shd_mem[c_mem][mshr_rc] = 0
gpgpu_stall_shd_mem[c_mem][icnt_rc] = 0
gpgpu_stall_shd_mem[c_mem][data_port_stall] = 0
gpgpu_stall_shd_mem[t_mem][mshr_rc] = 0
gpgpu_stall_shd_mem[t_mem][icnt_rc] = 0
gpgpu_stall_shd_mem[t_mem][data_port_stall] = 0
gpgpu_stall_shd_mem[s_mem][bk_conf] = 504
gpgpu_stall_shd_mem[gl_mem][bk_conf] = 0
gpgpu_stall_shd_mem[gl_mem][coal_stall] = 0
gpgpu_stall_shd_mem[gl_mem][data_port_stall] = 0
gpgpu_stall_shd_mem[g_mem_ld][mshr_rc] = 0
gpgpu_stall_shd_mem[g_mem_ld][icnt_rc] = 0
gpgpu_stall_shd_mem[g_mem_ld][wb_icnt_rc] = 0
gpgpu_stall_shd_mem[g_mem_ld][wb_rsrv_fail] = 0
gpgpu_stall_shd_mem[g_mem_st][mshr_rc] = 0
gpgpu_stall_shd_mem[g_mem_st][icnt_rc] = 0
gpgpu_stall_shd_mem[g_mem_st][wb_icnt_rc] = 0
gpgpu_stall_shd_mem[g_mem_st][wb_rsrv_fail] = 0
gpgpu_stall_shd_mem[l_mem_ld][mshr_rc] = 0
gpgpu_stall_shd_mem[l_mem_ld][icnt_rc] = 0
gpgpu_stall_shd_mem[l_mem_ld][wb_icnt_rc] = 0
gpgpu_stall_shd_mem[l_mem_ld][wb_rsrv_fail] = 0
gpgpu_stall_shd_mem[l_mem_st][mshr_rc] = 0
gpgpu_stall_shd_mem[l_mem_st][icnt_rc] = 0
gpgpu_stall_shd_mem[l_mem_ld][wb_icnt_rc] = 0
gpgpu_stall_shd_mem[l_mem_ld][wb_rsrv_fail] = 0
gpu_reg_bank_conflict_stalls = 0
Warp Occupancy Distribution:
Stall:0	W0_Idle:21736	W0_Scoreboard:6413	W1:252	W2:237	W3:222	W4:207	W5:192	W6:177	W7:162	W8:147	W9:132	W10:117	W11:102	W12:87	W13:72	W14:57	W15:35	W16:413	W17:0	W18:0	W19:0	W20:0	W21:0	W22:0	W23:0	W24:0	W25:0	W26:0	W27:0	W28:0	W29:0	W30:0	W31:0	W32:0
traffic_breakdown_coretomem[GLOBAL_ACC_R] = 128 {8:16,}
traffic_breakdown_coretomem[GLOBAL_ACC_W] = 1080 {72:15,}
traffic_breakdown_coretomem[INST_ACC_R] = 136 {8:17,}
traffic_breakdown_memtocore[GLOBAL_ACC_R] = 2176 {136:16,}
traffic_breakdown_memtocore[GLOBAL_ACC_W] = 120 {8:15,}
traffic_breakdown_memtocore[INST_ACC_R] = 2312 {136:17,}
maxmrqlatency = 1 
maxdqlatency = 0 
maxmflatency = 268 
averagemflatency = 217 
max_icnt2mem_latency = 12 
max_icnt2sh_latency = 15365 
mrq_lat_table:33 	0 	0 	0 	0 	0 	0 	0 	0 	0 	0 	0 	0 	0 	0 	0 	0 	0 	0 	0 	0 	0 	0 	0 	0 	0 	0 	0 	0 	0 	0 	0 	
dq_lat_table:0 	0 	0 	0 	0 	0 	0 	0 	0 	0 	0 	0 	0 	0 	0 	0 	0 	0 	0 	0 	0 	0 	0 	0 	0 	0 	0 	0 	0 	0 	0 	0 	
mf_lat_table:0 	0 	0 	0 	0 	0 	0 	15 	16 	0 	0 	0 	0 	0 	0 	0 	0 	0 	0 	0 	0 	0 	0 	0 	0 	0 	0 	0 	0 	0 	0 	0 	
icnt2mem_lat_table:0 	0 	0 	48 	0 	0 	0 	0 	0 	0 	0 	0 	0 	0 	0 	0 	0 	0 	0 	0 	0 	0 	0 	0 	
icnt2sh_lat_table:0 	0 	0 	15 	1 	0 	0 	0 	0 	0 	0 	0 	0 	15 	0 	0 	0 	0 	0 	0 	0 	0 	0 	0 	
mf_lat_pw_table:0 	0 	0 	0 	0 	0 	0 	2 	5 	0 	0 	0 	0 	0 	0 	0 	0 	0 	0 	0 	0 	0 	0 	0 	0 	0 	0 	0 	0 	0 	0 	0 	
maximum concurrent accesses to same row:
dram[0]:         0         0         0         0         0         0         0         0         0         0         0         0         0         0         0         0 
dram[1]:         0         0         0         0         0         0         0         0         0         0         0         0         0         0         0         0 
dram[2]:         0         0         0         0         0         0         0         0         0         0         0         0         0         0         0         0 
dram[3]:         0         0         0         0         0         0         0         0         0         0         0         0         0         0         0         0 
dram[4]:         0         0         0         0         0         0         0         0         0         0         0         0         0         0         0         0 
dram[5]:         0         0         0         0         0         0         0         0         0         0         0         0         0         0         0         0 
maximum service time to same row:
dram[0]:      2328         0         0         0      1151         0         0         0         0         0         0         0         0         0         0         0 
dram[1]:      3474         0         0         0         0         0         0         0         0         0         0         0         0         0         0         0 
dram[2]:      4054         0         0         0         0      1140         0         0         0         0         0         0         0         0         0         0 
dram[3]:      4713       232         0         0         0         0         0         0         0         0         0         0         0         0         0         0 
dram[4]:     14184       504         0         0      1162         0         0         0         0         0         0         0         0         0         0         0 
dram[5]:     14821      1437         0         0         0         0         0         0         0         0         0         0         0         0         0         0 
average row accesses per activate:
dram[0]:  2.000000      -nan      -nan      -nan  5.000000      -nan      -nan      -nan      -nan      -nan      -nan      -nan      -nan      -nan      -nan      -nan 
dram[1]:  2.000000      -nan      -nan      -nan      -nan      -nan      -nan      -nan      -nan      -nan      -nan      -nan      -nan      -nan      -nan      -nan 
dram[2]:  2.000000      -nan      -nan      -nan      -nan  6.000000      -nan      -nan      -nan      -nan      -nan      -nan      -nan      -nan      -nan      -nan 
dram[3]:  2.000000  1.000000      -nan      -nan      -nan      -nan      -nan      -nan      -nan      -nan      -nan      -nan      -nan      -nan      -nan      -nan 
dram[4]:  2.000000  2.000000      -nan      -nan  5.000000      -nan      -nan      -nan      -nan      -nan      -nan      -nan      -nan      -nan      -nan      -nan 
dram[5]:  2.000000  2.000000      -nan      -nan      -nan      -nan      -nan      -nan      -nan      -nan      -nan      -nan      -nan      -nan      -nan      -nan 
average row locality = 33/12 = 2.750000
number of total memory accesses made:
dram[0]:         0         0         0         0         0         0         0         0         0         0         0         0         0         0         0         0 
dram[1]:         0         0         0         0         0         0         0         0         0         0         0         0         0         0         0         0 
dram[2]:         0         0         0         0         0         0         0         0         0         0         0         0         0         0         0         0 
dram[3]:         0         0         0         0         0         0         0         0         0         0         0         0         0         0         0         0 
dram[4]:         0         0         0         0         0         0         0         0         0         0         0         0         0         0         0         0 
dram[5]:         0         0         0         0         0         0         0         0         0         0         0         0         0         0         0         0 
total accesses: 0
min_bank_accesses = 0!
min_chip_accesses = 0!
number of total read accesses:
dram[0]:         2         0         0         0         5         0         0         0         0         0         0         0         0         0         0         0 
dram[1]:         2         0         0         0         0         0         0         0         0         0         0         0         0         0         0         0 
dram[2]:         2         0         0         0         0         6         0         0         0         0         0         0         0         0         0         0 
dram[3]:         2         1         0         0         0         0         0         0         0         0         0         0         0         0         0         0 
dram[4]:         2         2         0         0         5         0         0         0         0         0         0         0         0         0         0         0 
dram[5]:         2         2         0         0         0         0         0         0         0         0         0         0         0         0         0         0 
total reads: 33
min_bank_accesses = 0!
chip skew: 9/2 = 4.50
number of total write accesses:
dram[0]:         0         0         0         0         0         0         0         0         0         0         0         0         0         0         0         0 
dram[1]:         0         0         0         0         0         0         0         0         0         0         0         0         0         0         0         0 
dram[2]:         0         0         0         0         0         0         0         0         0         0         0         0         0         0         0         0 
dram[3]:         0         0         0         0         0         0         0         0         0         0         0         0         0         0         0         0 
dram[4]:         0         0         0         0         0         0         0         0         0         0         0         0         0         0         0         0 
dram[5]:         0         0         0         0         0         0         0         0         0         0         0         0         0         0         0         0 
total reads: 0
min_bank_accesses = 0!
min_chip_accesses = 0!
average mf latency per bank:
dram[0]:          0    none      none      none         401    none      none      none      none      none      none      none      none      none      none      none  
dram[1]:          0    none      none      none      none      none      none      none      none      none      none      none      none      none      none      none  
dram[2]:          0    none      none      none      none         378    none      none      none      none      none      none      none      none      none      none  
dram[3]:          0         0    none      none      none      none      none      none      none      none      none      none      none      none      none      none  
dram[4]:          0         0    none      none         401    none      none      none      none      none      none      none      none      none      none      none  
dram[5]:          0         0    none      none      none      none      none      none      none      none      none      none      none      none      none      none  
maximum mf latency per bank:
dram[0]:          0         0         0         0       268         0         0         0         0         0         0         0         0         0         0         0
dram[1]:          0         0         0         0         0         0         0         0         0         0         0         0         0         0         0         0
dram[2]:          0         0         0         0         0       268         0         0         0         0         0         0         0         0         0         0
dram[3]:          0         0         0         0         0         0         0         0         0         0         0         0         0         0         0         0
dram[4]:          0         0         0         0       268         0         0         0         0         0         0         0         0         0         0         0
dram[5]:          0         0         0         0         0         0         0         0         0         0         0         0         0         0         0         0

Number of Memory Banks Accessed per Memory Operation per Warp (from 0):
0	0	0	0	0	0	0	0	0	0	0	0	0	0	0	0	0	0	0	0	0	0	0	0	0	0	0	0	0	0	0	0	0	0	0	0	0	0	0	0	0	0	0	0	0	0	0	0	0	0	0	0	0	0	0	0	0	0	0	0	0	0	0	0	0	0	0	0	0	0	0	0	0	0	0	0	0	0	0	0	0	0	0	0	0	0	0	0	0	0	0	0	0	0	0	0	
Average # of Memory Banks Accessed per Memory Operation per Warp=-nan

position of mrq chosen
0	0	0	0	0	0	0	0	0	0	0	0	0	0	0	0	

average position of mrq chosen = -nan
Memory Partition 0: 
Cache L2_bank_000:
MSHR contents

Cache L2_bank_001:
MSHR contents

In Dram Latency Queue (total = 0): 
DRAM[0]: 16 bks, busW=4 BL=8 CL=12, tRRD=2 tCCD=6, tRCD=12 tRAS=28 tRP=12 tRC=40
n_cmd=20282 n_nop=20266 n_act=2 n_pre=0 n_req=7 n_rd=14 n_write=0 bw_util=0.001381
n_activity=155 dram_eff=0.1806
bk0: 4a 20262i bk1: 0a 20282i bk2: 0a 20282i bk3: 0a 20282i bk4: 10a 20249i bk5: 0a 20280i bk6: 0a 20280i bk7: 0a 20280i bk8: 0a 20281i bk9: 0a 20282i bk10: 0a 20283i bk11: 0a 20283i bk12: 0a 20283i bk13: 0a 20283i bk14: 0a 20283i bk15: 0a 20283i 
dram_util_bins: 0 0 0 0 0 0 0 0 0 0
dram_eff_bins: 0 0 0 0 0 0 0 0 0 0
mrqq: max=0 avg=0
Memory Partition 1: 
Cache L2_bank_002:
MSHR contents

Cache L2_bank_003:
MSHR contents

In Dram Latency Queue (total = 0): 
DRAM[1]: 16 bks, busW=4 BL=8 CL=12, tRRD=2 tCCD=6, tRCD=12 tRAS=28 tRP=12 tRC=40
n_cmd=20282 n_nop=20277 n_act=1 n_pre=0 n_req=2 n_rd=4 n_write=0 bw_util=0.0003944
n_activity=55 dram_eff=0.1455
bk0: 4a 20262i bk1: 0a 20282i bk2: 0a 20282i bk3: 0a 20282i bk4: 0a 20282i bk5: 0a 20282i bk6: 0a 20282i bk7: 0a 20282i bk8: 0a 20282i bk9: 0a 20282i bk10: 0a 20282i bk11: 0a 20282i bk12: 0a 20282i bk13: 0a 20282i bk14: 0a 20282i bk15: 0a 20282i 
dram_util_bins: 0 0 0 0 0 0 0 0 0 0
dram_eff_bins: 0 0 0 0 0 0 0 0 0 0
mrqq: max=0 avg=0
Memory Partition 2: 
Cache L2_bank_004:
MSHR contents

Cache L2_bank_005:
MSHR contents

In Dram Latency Queue (total = 0): 
DRAM[2]: 16 bks, busW=4 BL=8 CL=12, tRRD=2 tCCD=6, tRCD=12 tRAS=28 tRP=12 tRC=40
n_cmd=20282 n_nop=20264 n_act=2 n_pre=0 n_req=8 n_rd=16 n_write=0 bw_util=0.001578
n_activity=170 dram_eff=0.1882
bk0: 4a 20262i bk1: 0a 20282i bk2: 0a 20282i bk3: 0a 20282i bk4: 0a 20282i bk5: 12a 20245i bk6: 0a 20281i bk7: 0a 20281i bk8: 0a 20281i bk9: 0a 20281i bk10: 0a 20281i bk11: 0a 20282i bk12: 0a 20283i bk13: 0a 20283i bk14: 0a 20283i bk15: 0a 20283i 
dram_util_bins: 0 0 0 0 0 0 0 0 0 0
dram_eff_bins: 0 0 0 0 0 0 0 0 0 0
mrqq: max=0 avg=0
Memory Partition 3: 
Cache L2_bank_006:
MSHR contents

Cache L2_bank_007:
MSHR contents

In Dram Latency Queue (total = 0): 
DRAM[3]: 16 bks, busW=4 BL=8 CL=12, tRRD=2 tCCD=6, tRCD=12 tRAS=28 tRP=12 tRC=40
n_cmd=20282 n_nop=20274 n_act=2 n_pre=0 n_req=3 n_rd=6 n_write=0 bw_util=0.0005917
n_activity=95 dram_eff=0.1263
bk0: 4a 20262i bk1: 2a 20265i bk2: 0a 20280i bk3: 0a 20282i bk4: 0a 20282i bk5: 0a 20282i bk6: 0a 20282i bk7: 0a 20282i bk8: 0a 20282i bk9: 0a 20282i bk10: 0a 20282i bk11: 0a 20282i bk12: 0a 20282i bk13: 0a 20282i bk14: 0a 20282i bk15: 0a 20283i 
dram_util_bins: 0 0 0 0 0 0 0 0 0 0
dram_eff_bins: 0 0 0 0 0 0 0 0 0 0
mrqq: max=0 avg=0
Memory Partition 4: 
Cache L2_bank_008:
MSHR contents

Cache L2_bank_009:
MSHR contents

In Dram Latency Queue (total = 0): 
DRAM[4]: 16 bks, busW=4 BL=8 CL=12, tRRD=2 tCCD=6, tRCD=12 tRAS=28 tRP=12 tRC=40
n_cmd=20282 n_nop=20261 n_act=3 n_pre=0 n_req=9 n_rd=18 n_write=0 bw_util=0.001775
n_activity=210 dram_eff=0.1714
bk0: 4a 20262i bk1: 4a 20261i bk2: 0a 20280i bk3: 0a 20281i bk4: 10a 20249i bk5: 0a 20280i bk6: 0a 20281i bk7: 0a 20281i bk8: 0a 20282i bk9: 0a 20282i bk10: 0a 20283i bk11: 0a 20283i bk12: 0a 20283i bk13: 0a 20283i bk14: 0a 20283i bk15: 0a 20283i 
dram_util_bins: 0 0 0 0 0 0 0 0 0 0
dram_eff_bins: 0 0 0 0 0 0 0 0 0 0
mrqq: max=0 avg=0
Memory Partition 5: 
Cache L2_bank_010:
MSHR contents

Cache L2_bank_011:
MSHR contents

In Dram Latency Queue (total = 0): 
DRAM[5]: 16 bks, busW=4 BL=8 CL=12, tRRD=2 tCCD=6, tRCD=12 tRAS=28 tRP=12 tRC=40
n_cmd=20282 n_nop=20272 n_act=2 n_pre=0 n_req=4 n_rd=8 n_write=0 bw_util=0.0007889
n_activity=110 dram_eff=0.1455
bk0: 4a 20262i bk1: 4a 20261i bk2: 0a 20280i bk3: 0a 20281i bk4: 0a 20282i bk5: 0a 20282i bk6: 0a 20282i bk7: 0a 20282i bk8: 0a 20282i bk9: 0a 20282i bk10: 0a 20282i bk11: 0a 20282i bk12: 0a 20282i bk13: 0a 20282i bk14: 0a 20283i bk15: 0a 20283i 
dram_util_bins: 0 0 0 0 0 0 0 0 0 0
dram_eff_bins: 0 0 0 0 0 0 0 0 0 0
mrqq: max=0 avg=0

========= L2 cache stats =========
L2_cache_bank[0]: Access = 12, Miss = 7, Miss_rate = 0.583, Pending_hits = 0, Reservation_fails = 0
L2_cache_bank[1]: Access = 0, Miss = 0, Miss_rate = -nan, Pending_hits = 0, Reservation_fails = 0
L2_cache_bank[2]: Access = 2, Miss = 2, Miss_rate = 1.000, Pending_hits = 0, Reservation_fails = 0
L2_cache_bank[3]: Access = 0, Miss = 0, Miss_rate = -nan, Pending_hits = 0, Reservation_fails = 0
L2_cache_bank[4]: Access = 2, Miss = 2, Miss_rate = 1.000, Pending_hits = 0, Reservation_fails = 0
L2_cache_bank[5]: Access = 11, Miss = 6, Miss_rate = 0.545, Pending_hits = 0, Reservation_fails = 0
L2_cache_bank[6]: Access = 2, Miss = 2, Miss_rate = 1.000, Pending_hits = 0, Reservation_fails = 0
L2_cache_bank[7]: Access = 1, Miss = 1, Miss_rate = 1.000, Pending_hits = 0, Reservation_fails = 0
L2_cache_bank[8]: Access = 12, Miss = 7, Miss_rate = 0.583, Pending_hits = 0, Reservation_fails = 0
L2_cache_bank[9]: Access = 2, Miss = 2, Miss_rate = 1.000, Pending_hits = 0, Reservation_fails = 0
L2_cache_bank[10]: Access = 2, Miss = 2, Miss_rate = 1.000, Pending_hits = 0, Reservation_fails = 0
L2_cache_bank[11]: Access = 2, Miss = 2, Miss_rate = 1.000, Pending_hits = 0, Reservation_fails = 0
L2_total_cache_accesses = 48
L2_total_cache_misses = 33
L2_total_cache_miss_rate = 0.6875
L2_total_cache_pending_hits = 0
L2_total_cache_reservation_fails = 0
L2_total_cache_breakdown:
	L2_cache_stats_breakdown[GLOBAL_ACC_R][MISS] = 16
	L2_cache_stats_breakdown[GLOBAL_ACC_W][HIT] = 15
	L2_cache_stats_breakdown[INST_ACC_R][MISS] = 17
L2_cache_data_port_util = 0.000
L2_cache_fill_port_util = 0.001

icnt_total_pkts_mem_to_simt=180
icnt_total_pkts_simt_to_mem=78
LD_mem_lat_dist  0 0 0 0 0 0 0 0 0 0 0 0 0 0 0 0 0 0 0 0 0 0 0 0 0 0 0
ST_mem_lat_dist  0 0 0 0 0 0 0 0 0 0 0 0 0 0 0 0 0 0 0 0 0 0 0 0 0 0 0
----------------------------Interconnect-DETAILS--------------------------------
Class 0:
Packet latency average = 7.77083
	minimum = 6
	maximum = 14
Network latency average = 7.76042
	minimum = 6
	maximum = 14
Slowest packet = 13
Flit latency average = 6.1124
	minimum = 6
	maximum = 10
Slowest flit = 37
Fragmentation average = 0
	minimum = 0
	maximum = 0
Injected packet rate average = 0.000231391
	minimum = 0 (at node 0)
	maximum = 0.00312378 (at node 1)
Accepted packet rate average = 0.000231391
	minimum = 0 (at node 0)
	maximum = 0.00312378 (at node 1)
Injected flit rate average = 0.000621864
	minimum = 0 (at node 0)
	maximum = 0.00507614 (at node 1)
Accepted flit rate average= 0.000621864
	minimum = 0 (at node 0)
	maximum = 0.0117142 (at node 1)
Injected packet length average = 2.6875
Accepted packet length average = 2.6875
Total in-flight flits = 0 (0 measured)
====== Overall Traffic Statistics ======
====== Traffic class 0 ======
Packet latency average = 7.77083 (1 samples)
	minimum = 6 (1 samples)
	maximum = 14 (1 samples)
Network latency average = 7.76042 (1 samples)
	minimum = 6 (1 samples)
	maximum = 14 (1 samples)
Flit latency average = 6.1124 (1 samples)
	minimum = 6 (1 samples)
	maximum = 10 (1 samples)
Fragmentation average = 0 (1 samples)
	minimum = 0 (1 samples)
	maximum = 0 (1 samples)
Injected packet rate average = 0.000231391 (1 samples)
	minimum = 0 (1 samples)
	maximum = 0.00312378 (1 samples)
Accepted packet rate average = 0.000231391 (1 samples)
	minimum = 0 (1 samples)
	maximum = 0.00312378 (1 samples)
Injected flit rate average = 0.000621864 (1 samples)
	minimum = 0 (1 samples)
	maximum = 0.00507614 (1 samples)
Accepted flit rate average = 0.000621864 (1 samples)
	minimum = 0 (1 samples)
	maximum = 0.0117142 (1 samples)
Injected packet size average = 2.6875 (1 samples)
Accepted packet size average = 2.6875 (1 samples)
Hops average = 1 (1 samples)
----------------------------END-of-Interconnect-DETAILS-------------------------


gpgpu_simulation_time = 0 days, 0 hrs, 0 min, 1 sec (1 sec)
gpgpu_simulation_rate = 19237 (inst/sec)
gpgpu_simulation_rate = 15366 (cycle/sec)

GPGPU-Sim PTX: cudaLaunch for 0x0x401f20 (mode=performance simulation) on stream 0
GPGPU-Sim PTX: pushing kernel '_Z13lud_perimeterPfii' to stream 0, gridDim= (15,1,1) blockDim = (32,1,1) 
kernel '_Z13lud_perimeterPfii' transfer to GPU hardware scheduler
GPGPU-Sim uArch: Shader 2 bind to kernel 2 '_Z13lud_perimeterPfii'
GPGPU-Sim uArch: CTA/core = 8, limited by: cta_limit
GPGPU-Sim uArch: core:  2, cta: 0 initialized @(1,15366)
GPGPU-Sim uArch: Shader 3 bind to kernel 2 '_Z13lud_perimeterPfii'
GPGPU-Sim uArch: core:  3, cta: 0 initialized @(1,15366)
GPGPU-Sim uArch: Shader 4 bind to kernel 2 '_Z13lud_perimeterPfii'
GPGPU-Sim uArch: core:  4, cta: 0 initialized @(1,15366)
GPGPU-Sim uArch: Shader 5 bind to kernel 2 '_Z13lud_perimeterPfii'
GPGPU-Sim uArch: core:  5, cta: 0 initialized @(1,15366)
GPGPU-Sim uArch: Shader 6 bind to kernel 2 '_Z13lud_perimeterPfii'
GPGPU-Sim uArch: core:  6, cta: 0 initialized @(1,15366)
GPGPU-Sim uArch: Shader 7 bind to kernel 2 '_Z13lud_perimeterPfii'
GPGPU-Sim uArch: core:  7, cta: 0 initialized @(1,15366)
GPGPU-Sim uArch: Shader 8 bind to kernel 2 '_Z13lud_perimeterPfii'
GPGPU-Sim uArch: core:  8, cta: 0 initialized @(1,15366)
GPGPU-Sim uArch: Shader 9 bind to kernel 2 '_Z13lud_perimeterPfii'
GPGPU-Sim uArch: core:  9, cta: 0 initialized @(1,15366)
GPGPU-Sim uArch: Shader 10 bind to kernel 2 '_Z13lud_perimeterPfii'
GPGPU-Sim uArch: core: 10, cta: 0 initialized @(1,15366)
GPGPU-Sim uArch: Shader 11 bind to kernel 2 '_Z13lud_perimeterPfii'
GPGPU-Sim uArch: core: 11, cta: 0 initialized @(1,15366)
GPGPU-Sim uArch: Shader 12 bind to kernel 2 '_Z13lud_perimeterPfii'
GPGPU-Sim uArch: core: 12, cta: 0 initialized @(1,15366)
GPGPU-Sim uArch: Shader 13 bind to kernel 2 '_Z13lud_perimeterPfii'
GPGPU-Sim uArch: core: 13, cta: 0 initialized @(1,15366)
GPGPU-Sim uArch: Shader 14 bind to kernel 2 '_Z13lud_perimeterPfii'
GPGPU-Sim uArch: core: 14, cta: 0 initialized @(1,15366)
GPGPU-Sim uArch: Shader 0 bind to kernel 2 '_Z13lud_perimeterPfii'
GPGPU-Sim uArch: core:  0, cta: 0 initialized @(1,15366)
GPGPU-Sim uArch: Shader 1 bind to kernel 2 '_Z13lud_perimeterPfii'
GPGPU-Sim uArch: core:  1, cta: 0 initialized @(1,15366)
GPGPU-Sim uArch: cycles simulated: 17366  inst.: 40213 (ipc=10.5) sim_rate=20106 (inst/sec) elapsed = 0:0:00:02 / Fri Oct 31 16:32:33 2014
GPGPU-Sim uArch: cycles simulated: 21366  inst.: 87637 (ipc=11.4) sim_rate=29212 (inst/sec) elapsed = 0:0:00:03 / Fri Oct 31 16:32:34 2014
GPGPU-Sim PTX: 100000 instructions simulated : ctaid=(14,0,0) tid=(24,0,0)
GPGPU-Sim uArch: cycles simulated: 25366  inst.: 186581 (ipc=16.7) sim_rate=46645 (inst/sec) elapsed = 0:0:00:04 / Fri Oct 31 16:32:35 2014
GPGPU-Sim PTX: 200000 instructions simulated : ctaid=(1,0,0) tid=(8,0,0)
GPGPU-Sim PTX: 300000 instructions simulated : ctaid=(3,0,0) tid=(8,0,0)
GPGPU-Sim uArch: cycles simulated: 28866  inst.: 341093 (ipc=23.8) sim_rate=68218 (inst/sec) elapsed = 0:0:00:05 / Fri Oct 31 16:32:36 2014
GPGPU-Sim PTX: 400000 instructions simulated : ctaid=(8,0,0) tid=(24,0,0)
GPGPU-Sim PTX: 500000 instructions simulated : ctaid=(11,0,0) tid=(24,0,0)
GPGPU-Sim uArch: cycles simulated: 32366  inst.: 510453 (ipc=28.9) sim_rate=85075 (inst/sec) elapsed = 0:0:00:06 / Fri Oct 31 16:32:37 2014
GPGPU-Sim PTX: 600000 instructions simulated : ctaid=(7,0,0) tid=(24,0,0)
GPGPU-Sim uArch: cycles simulated: 35366  inst.: 650325 (ipc=31.6) sim_rate=92903 (inst/sec) elapsed = 0:0:00:07 / Fri Oct 31 16:32:38 2014
GPGPU-Sim PTX: 700000 instructions simulated : ctaid=(2,0,0) tid=(24,0,0)
GPGPU-Sim PTX: 800000 instructions simulated : ctaid=(5,0,0) tid=(24,0,0)
GPGPU-Sim uArch: cycles simulated: 38866  inst.: 812229 (ipc=33.7) sim_rate=101528 (inst/sec) elapsed = 0:0:00:08 / Fri Oct 31 16:32:39 2014
GPGPU-Sim PTX: 900000 instructions simulated : ctaid=(11,0,0) tid=(24,0,0)
GPGPU-Sim uArch: cycles simulated: 42866  inst.: 884677 (ipc=31.5) sim_rate=98297 (inst/sec) elapsed = 0:0:00:09 / Fri Oct 31 16:32:40 2014
GPGPU-Sim uArch: Shader 3 finished CTA #0 (28337,15366), 0 CTAs running
GPGPU-Sim uArch: Shader 3 empty (release kernel 2 '_Z13lud_perimeterPfii').
GPGPU-Sim uArch: Shader 5 finished CTA #0 (28343,15366), 0 CTAs running
GPGPU-Sim uArch: Shader 5 empty (release kernel 2 '_Z13lud_perimeterPfii').
GPGPU-Sim uArch: Shader 4 finished CTA #0 (28349,15366), 0 CTAs running
GPGPU-Sim uArch: Shader 4 empty (release kernel 2 '_Z13lud_perimeterPfii').
GPGPU-Sim uArch: Shader 6 finished CTA #0 (28359,15366), 0 CTAs running
GPGPU-Sim uArch: Shader 6 empty (release kernel 2 '_Z13lud_perimeterPfii').
GPGPU-Sim uArch: Shader 2 finished CTA #0 (28361,15366), 0 CTAs running
GPGPU-Sim uArch: Shader 2 empty (release kernel 2 '_Z13lud_perimeterPfii').
GPGPU-Sim uArch: Shader 7 finished CTA #0 (28364,15366), 0 CTAs running
GPGPU-Sim uArch: Shader 7 empty (release kernel 2 '_Z13lud_perimeterPfii').
GPGPU-Sim uArch: Shader 9 finished CTA #0 (28371,15366), 0 CTAs running
GPGPU-Sim uArch: Shader 9 empty (release kernel 2 '_Z13lud_perimeterPfii').
GPGPU-Sim uArch: Shader 10 finished CTA #0 (28378,15366), 0 CTAs running
GPGPU-Sim uArch: Shader 10 empty (release kernel 2 '_Z13lud_perimeterPfii').
GPGPU-Sim uArch: Shader 8 finished CTA #0 (28383,15366), 0 CTAs running
GPGPU-Sim uArch: Shader 8 empty (release kernel 2 '_Z13lud_perimeterPfii').
GPGPU-Sim uArch: Shader 11 finished CTA #0 (28398,15366), 0 CTAs running
GPGPU-Sim uArch: Shader 11 empty (release kernel 2 '_Z13lud_perimeterPfii').
GPGPU-Sim uArch: Shader 13 finished CTA #0 (28400,15366), 0 CTAs running
GPGPU-Sim uArch: Shader 13 empty (release kernel 2 '_Z13lud_perimeterPfii').
GPGPU-Sim uArch: Shader 12 finished CTA #0 (28403,15366), 0 CTAs running
GPGPU-Sim uArch: Shader 12 empty (release kernel 2 '_Z13lud_perimeterPfii').
GPGPU-Sim uArch: Shader 14 finished CTA #0 (28409,15366), 0 CTAs running
GPGPU-Sim uArch: Shader 14 empty (release kernel 2 '_Z13lud_perimeterPfii').
GPGPU-Sim uArch: Shader 0 finished CTA #0 (28415,15366), 0 CTAs running
GPGPU-Sim uArch: Shader 0 empty (release kernel 2 '_Z13lud_perimeterPfii').
GPGPU-Sim uArch: Shader 1 finished CTA #0 (28421,15366), 0 CTAs running
GPGPU-Sim uArch: Shader 1 empty (release kernel 2 '_Z13lud_perimeterPfii').
GPGPU-Sim uArch: GPU detected kernel '_Z13lud_perimeterPfii' finished on shader 1.
kernel_name = _Z13lud_perimeterPfii 
kernel_launch_uid = 2 
gpu_sim_cycle = 28422
gpu_sim_insn = 878160
gpu_ipc =      30.8972
gpu_tot_sim_cycle = 43788
gpu_tot_sim_insn = 897397
gpu_tot_ipc =      20.4941
gpu_tot_issued_cta = 0
gpu_stall_dramfull = 1806
gpu_stall_icnt2sh    = 2509
gpu_total_sim_rate=99710

========= Core cache stats =========
L1I_cache:
	L1I_total_cache_accesses = 33226
	L1I_total_cache_misses = 602
	L1I_total_cache_miss_rate = 0.0181
	L1I_total_cache_pending_hits = 0
	L1I_total_cache_reservation_fails = 0
L1D_cache:
	L1D_cache_core[0]: Access = 79, Miss = 48, Miss_rate = 0.608, Pending_hits = 0, Reservation_fails = 0
	L1D_cache_core[1]: Access = 110, Miss = 63, Miss_rate = 0.573, Pending_hits = 0, Reservation_fails = 0
	L1D_cache_core[2]: Access = 79, Miss = 47, Miss_rate = 0.595, Pending_hits = 0, Reservation_fails = 0
	L1D_cache_core[3]: Access = 79, Miss = 48, Miss_rate = 0.608, Pending_hits = 0, Reservation_fails = 0
	L1D_cache_core[4]: Access = 79, Miss = 48, Miss_rate = 0.608, Pending_hits = 0, Reservation_fails = 0
	L1D_cache_core[5]: Access = 79, Miss = 48, Miss_rate = 0.608, Pending_hits = 0, Reservation_fails = 0
	L1D_cache_core[6]: Access = 79, Miss = 48, Miss_rate = 0.608, Pending_hits = 0, Reservation_fails = 0
	L1D_cache_core[7]: Access = 79, Miss = 48, Miss_rate = 0.608, Pending_hits = 0, Reservation_fails = 0
	L1D_cache_core[8]: Access = 79, Miss = 48, Miss_rate = 0.608, Pending_hits = 0, Reservation_fails = 0
	L1D_cache_core[9]: Access = 79, Miss = 48, Miss_rate = 0.608, Pending_hits = 0, Reservation_fails = 0
	L1D_cache_core[10]: Access = 79, Miss = 48, Miss_rate = 0.608, Pending_hits = 0, Reservation_fails = 0
	L1D_cache_core[11]: Access = 79, Miss = 48, Miss_rate = 0.608, Pending_hits = 0, Reservation_fails = 0
	L1D_cache_core[12]: Access = 79, Miss = 48, Miss_rate = 0.608, Pending_hits = 0, Reservation_fails = 0
	L1D_cache_core[13]: Access = 79, Miss = 48, Miss_rate = 0.608, Pending_hits = 0, Reservation_fails = 0
	L1D_cache_core[14]: Access = 79, Miss = 48, Miss_rate = 0.608, Pending_hits = 0, Reservation_fails = 0
	L1D_total_cache_accesses = 1216
	L1D_total_cache_misses = 734
	L1D_total_cache_miss_rate = 0.6036
	L1D_total_cache_pending_hits = 0
	L1D_total_cache_reservation_fails = 0
	L1D_cache_data_port_util = 0.001
	L1D_cache_fill_port_util = 0.002
L1C_cache:
	L1C_total_cache_accesses = 0
	L1C_total_cache_misses = 0
	L1C_total_cache_pending_hits = 0
	L1C_total_cache_reservation_fails = 0
L1T_cache:
	L1T_total_cache_accesses = 0
	L1T_total_cache_misses = 0
	L1T_total_cache_pending_hits = 0
	L1T_total_cache_reservation_fails = 0

Total_core_cache_stats:
	Total_core_cache_stats_breakdown[GLOBAL_ACC_R][HIT] = 17
	Total_core_cache_stats_breakdown[GLOBAL_ACC_R][MISS] = 719
	Total_core_cache_stats_breakdown[GLOBAL_ACC_W][HIT] = 465
	Total_core_cache_stats_breakdown[GLOBAL_ACC_W][MISS] = 15
	Total_core_cache_stats_breakdown[INST_ACC_R][HIT] = 32624
	Total_core_cache_stats_breakdown[INST_ACC_R][MISS] = 602
Shader 0 warp_id issue ditsribution:
warp_id:
0, 
distro:
3711, 
gpgpu_n_tot_thrd_icount = 1864832
gpgpu_n_tot_w_icount = 58276
gpgpu_n_stall_shd_mem = 29064
gpgpu_n_mem_read_local = 0
gpgpu_n_mem_write_local = 0
gpgpu_n_mem_read_global = 719
gpgpu_n_mem_write_global = 480
gpgpu_n_mem_texture = 0
gpgpu_n_mem_const = 0
gpgpu_n_load_insn  = 11776
gpgpu_n_store_insn = 7680
gpgpu_n_shmem_insn = 154224
gpgpu_n_tex_insn = 0
gpgpu_n_const_mem_insn = 0
gpgpu_n_param_mem_insn = 0
gpgpu_n_shmem_bkconflict = 0
gpgpu_n_cache_bkconflict = 0
gpgpu_n_intrawarp_mshr_merge = 0
gpgpu_n_cmem_portconflict = 0
gpgpu_stall_shd_mem[c_mem][bk_conf] = 0
gpgpu_stall_shd_mem[c_mem][mshr_rc] = 0
gpgpu_stall_shd_mem[c_mem][icnt_rc] = 0
gpgpu_stall_shd_mem[c_mem][data_port_stall] = 0
gpgpu_stall_shd_mem[t_mem][mshr_rc] = 0
gpgpu_stall_shd_mem[t_mem][icnt_rc] = 0
gpgpu_stall_shd_mem[t_mem][data_port_stall] = 0
gpgpu_stall_shd_mem[s_mem][bk_conf] = 29064
gpgpu_stall_shd_mem[gl_mem][bk_conf] = 0
gpgpu_stall_shd_mem[gl_mem][coal_stall] = 0
gpgpu_stall_shd_mem[gl_mem][data_port_stall] = 0
gpgpu_stall_shd_mem[g_mem_ld][mshr_rc] = 0
gpgpu_stall_shd_mem[g_mem_ld][icnt_rc] = 0
gpgpu_stall_shd_mem[g_mem_ld][wb_icnt_rc] = 0
gpgpu_stall_shd_mem[g_mem_ld][wb_rsrv_fail] = 0
gpgpu_stall_shd_mem[g_mem_st][mshr_rc] = 0
gpgpu_stall_shd_mem[g_mem_st][icnt_rc] = 0
gpgpu_stall_shd_mem[g_mem_st][wb_icnt_rc] = 0
gpgpu_stall_shd_mem[g_mem_st][wb_rsrv_fail] = 0
gpgpu_stall_shd_mem[l_mem_ld][mshr_rc] = 0
gpgpu_stall_shd_mem[l_mem_ld][icnt_rc] = 0
gpgpu_stall_shd_mem[l_mem_ld][wb_icnt_rc] = 0
gpgpu_stall_shd_mem[l_mem_ld][wb_rsrv_fail] = 0
gpgpu_stall_shd_mem[l_mem_st][mshr_rc] = 0
gpgpu_stall_shd_mem[l_mem_st][icnt_rc] = 0
gpgpu_stall_shd_mem[l_mem_ld][wb_icnt_rc] = 0
gpgpu_stall_shd_mem[l_mem_ld][wb_rsrv_fail] = 0
gpu_reg_bank_conflict_stalls = 0
Warp Occupancy Distribution:
Stall:0	W0_Idle:621067	W0_Scoreboard:202829	W1:252	W2:237	W3:222	W4:207	W5:192	W6:177	W7:162	W8:147	W9:132	W10:117	W11:102	W12:87	W13:72	W14:57	W15:35	W16:55883	W17:0	W18:0	W19:0	W20:0	W21:0	W22:0	W23:0	W24:0	W25:0	W26:0	W27:0	W28:0	W29:0	W30:0	W31:0	W32:195
traffic_breakdown_coretomem[GLOBAL_ACC_R] = 5752 {8:719,}
traffic_breakdown_coretomem[GLOBAL_ACC_W] = 34560 {72:480,}
traffic_breakdown_coretomem[INST_ACC_R] = 4816 {8:602,}
traffic_breakdown_memtocore[GLOBAL_ACC_R] = 97784 {136:719,}
traffic_breakdown_memtocore[GLOBAL_ACC_W] = 3840 {8:480,}
traffic_breakdown_memtocore[INST_ACC_R] = 81872 {136:602,}
maxmrqlatency = 19 
maxdqlatency = 0 
maxmflatency = 342 
averagemflatency = 200 
max_icnt2mem_latency = 36 
max_icnt2sh_latency = 43787 
mrq_lat_table:377 	25 	6 	12 	3 	0 	0 	0 	0 	0 	0 	0 	0 	0 	0 	0 	0 	0 	0 	0 	0 	0 	0 	0 	0 	0 	0 	0 	0 	0 	0 	0 	
dq_lat_table:0 	0 	0 	0 	0 	0 	0 	0 	0 	0 	0 	0 	0 	0 	0 	0 	0 	0 	0 	0 	0 	0 	0 	0 	0 	0 	0 	0 	0 	0 	0 	0 	
mf_lat_table:0 	0 	0 	0 	0 	0 	0 	696 	503 	0 	0 	0 	0 	0 	0 	0 	0 	0 	0 	0 	0 	0 	0 	0 	0 	0 	0 	0 	0 	0 	0 	0 	
icnt2mem_lat_table:0 	0 	0 	1772 	26 	3 	0 	0 	0 	0 	0 	0 	0 	0 	0 	0 	0 	0 	0 	0 	0 	0 	0 	0 	
icnt2sh_lat_table:0 	0 	0 	413 	303 	3 	0 	0 	0 	0 	0 	0 	0 	15 	0 	465 	0 	0 	0 	0 	0 	0 	0 	0 	
mf_lat_pw_table:0 	0 	0 	0 	0 	0 	0 	18 	14 	0 	0 	0 	0 	0 	0 	0 	0 	0 	0 	0 	0 	0 	0 	0 	0 	0 	0 	0 	0 	0 	0 	0 	
maximum concurrent accesses to same row:
dram[0]:         0         0         0         0         0         0         0         0         0         0         0         0         0         0         0         0 
dram[1]:         0         0         0         0         0         0         0         0         0         0         0         0         0         0         0         0 
dram[2]:         0         0         0         0         0         0         0         0         0         0         0         0         0         0         0         0 
dram[3]:         0         0         0         0         0         0         0         0         0         0         0         0         0         0         0         0 
dram[4]:         0         0         0         0         0         0         0         0         0         0         0         0         0         0         0         0 
dram[5]:         0         0         0         0         0         0         0         0         0         0         0         0         0         0         0         0 
maximum service time to same row:
dram[0]:      2328      2816         0         0      1151      2182      5732         0      5740         0      5763         0      5781         0      5799         0 
dram[1]:      3474      3579         0         0      2146      2206         0         0         0         0         0         0         0         0         0         0 
dram[2]:      4054      4412         0         0      2169      1140         0      5727         0      5757         0      5775         0      5793         0      5810 
dram[3]:      4713       232         0         0      2194      2134         0         0         0         0         0         0         0         0         0         0 
dram[4]:     14184       504         0         0      1162      2157      5744         0      5746         0      5769         0      5787         0      5804         0 
dram[5]:     14821      1437         0         0      2157      2182         0         0         0         0         0         0         0         0         0         0 
average row accesses per activate:
dram[0]:  4.000000  4.000000      -nan      -nan 10.000000 10.000000 16.000000      -nan 16.000000      -nan 16.000000      -nan 16.000000      -nan 16.000000      -nan 
dram[1]:  4.000000  4.000000      -nan      -nan 10.000000 10.000000      -nan      -nan      -nan      -nan      -nan      -nan      -nan      -nan      -nan      -nan 
dram[2]:  5.000000  4.000000      -nan      -nan 10.000000 12.000000      -nan 16.000000      -nan 16.000000      -nan 16.000000      -nan 16.000000      -nan 16.000000 
dram[3]:  6.000000  4.000000      -nan      -nan 10.000000 12.000000      -nan      -nan      -nan      -nan      -nan      -nan      -nan      -nan      -nan      -nan 
dram[4]:  6.000000  4.000000      -nan      -nan 10.000000 12.000000 16.000000      -nan 16.000000      -nan 16.000000      -nan 16.000000      -nan 16.000000      -nan 
dram[5]:  6.000000  4.000000      -nan      -nan 10.000000 12.000000      -nan      -nan      -nan      -nan      -nan      -nan      -nan      -nan      -nan      -nan 
average row locality = 423/39 = 10.846154
number of total memory accesses made:
dram[0]:         0         0         0         0         0         0         0         0         0         0         0         0         0         0         0         0 
dram[1]:         0         0         0         0         0         0         0         0         0         0         0         0         0         0         0         0 
dram[2]:         0         0         0         0         0         0         0         0         0         0         0         0         0         0         0         0 
dram[3]:         0         0         0         0         0         0         0         0         0         0         0         0         0         0         0         0 
dram[4]:         0         0         0         0         0         0         0         0         0         0         0         0         0         0         0         0 
dram[5]:         0         0         0         0         0         0         0         0         0         0         0         0         0         0         0         0 
total accesses: 0
min_bank_accesses = 0!
min_chip_accesses = 0!
number of total read accesses:
dram[0]:         4         4         0         0        10        10        16         0        16         0        16         0        16         0        16         0 
dram[1]:         4         4         0         0        10        10         0         0         0         0         0         0         0         0         0         0 
dram[2]:         5         4         0         0        10        12         0        16         0        16         0        16         0        16         0        16 
dram[3]:         6         4         0         0        10        12         0         0         0         0         0         0         0         0         0         0 
dram[4]:         6         4         0         0        10        12        16         0        16         0        16         0        16         0        16         0 
dram[5]:         6         4         0         0        10        12         0         0         0         0         0         0         0         0         0         0 
total reads: 423
min_bank_accesses = 0!
chip skew: 112/28 = 4.00
number of total write accesses:
dram[0]:         0         0         0         0         0         0         0         0         0         0         0         0         0         0         0         0 
dram[1]:         0         0         0         0         0         0         0         0         0         0         0         0         0         0         0         0 
dram[2]:         0         0         0         0         0         0         0         0         0         0         0         0         0         0         0         0 
dram[3]:         0         0         0         0         0         0         0         0         0         0         0         0         0         0         0         0 
dram[4]:         0         0         0         0         0         0         0         0         0         0         0         0         0         0         0         0 
dram[5]:         0         0         0         0         0         0         0         0         0         0         0         0         0         0         0         0 
total reads: 0
min_bank_accesses = 0!
min_chip_accesses = 0!
average mf latency per bank:
dram[0]:          0         0    none      none        1824       861       406    none         409    none         417    none         423    none         425    none  
dram[1]:          0         0    none      none         803       803    none      none      none      none      none      none      none      none      none      none  
dram[2]:          0         0    none      none         803      1688    none         412    none         411    none         441    none         453    none         460
dram[3]:          0         0    none      none         850       756    none      none      none      none      none      none      none      none      none      none  
dram[4]:          0         0    none      none        1816       757       407    none         409    none         415    none         419    none         421    none  
dram[5]:          0         0    none      none         839       756    none      none      none      none      none      none      none      none      none      none  
maximum mf latency per bank:
dram[0]:          0         0         0         0       268       268       295         0       307         0       342         0       342         0       336         0
dram[1]:          0         0         0         0       268       268         0         0         0         0         0         0         0         0         0         0
dram[2]:          0         0         0         0       268       268         0       274         0       299         0       305         0       317         0       323
dram[3]:          0         0         0         0       268       268         0         0         0         0         0         0         0         0         0         0
dram[4]:          0         0         0         0       268       268       282         0       286         0       304         0       310         0       322         0
dram[5]:          0         0         0         0       268       268         0         0         0         0         0         0         0         0         0         0

Number of Memory Banks Accessed per Memory Operation per Warp (from 0):
0	0	0	0	0	0	0	0	0	0	0	0	0	0	0	0	0	0	0	0	0	0	0	0	0	0	0	0	0	0	0	0	0	0	0	0	0	0	0	0	0	0	0	0	0	0	0	0	0	0	0	0	0	0	0	0	0	0	0	0	0	0	0	0	0	0	0	0	0	0	0	0	0	0	0	0	0	0	0	0	0	0	0	0	0	0	0	0	0	0	0	0	0	0	0	0	
Average # of Memory Banks Accessed per Memory Operation per Warp=-nan

position of mrq chosen
0	0	0	0	0	0	0	0	0	0	0	0	0	0	0	0	

average position of mrq chosen = -nan
Memory Partition 0: 
Cache L2_bank_000:
MSHR contents

Cache L2_bank_001:
MSHR contents

In Dram Latency Queue (total = 0): 
DRAM[0]: 16 bks, busW=4 BL=8 CL=12, tRRD=2 tCCD=6, tRCD=12 tRAS=28 tRP=12 tRC=40
n_cmd=57798 n_nop=57573 n_act=9 n_pre=0 n_req=108 n_rd=216 n_write=0 bw_util=0.007474
n_activity=1179 dram_eff=0.3664
bk0: 8a 57769i bk1: 8a 57770i bk2: 0a 57798i bk3: 0a 57798i bk4: 20a 57745i bk5: 20a 57742i bk6: 32a 57715i bk7: 0a 57794i bk8: 32a 57702i bk9: 0a 57797i bk10: 32a 57676i bk11: 0a 57799i bk12: 32a 57678i bk13: 0a 57800i bk14: 32a 57676i bk15: 0a 57798i 
dram_util_bins: 0 0 0 0 0 0 0 0 0 0
dram_eff_bins: 0 0 0 0 0 0 0 0 0 0
mrqq: max=2 avg=0.00138413
Memory Partition 1: 
Cache L2_bank_002:
MSHR contents

Cache L2_bank_003:
MSHR contents

In Dram Latency Queue (total = 0): 
DRAM[1]: 16 bks, busW=4 BL=8 CL=12, tRRD=2 tCCD=6, tRCD=12 tRAS=28 tRP=12 tRC=40
n_cmd=57798 n_nop=57738 n_act=4 n_pre=0 n_req=28 n_rd=56 n_write=0 bw_util=0.001938
n_activity=490 dram_eff=0.2286
bk0: 8a 57771i bk1: 8a 57770i bk2: 0a 57797i bk3: 0a 57798i bk4: 20a 57744i bk5: 20a 57743i bk6: 0a 57796i bk7: 0a 57798i bk8: 0a 57798i bk9: 0a 57798i bk10: 0a 57798i bk11: 0a 57798i bk12: 0a 57798i bk13: 0a 57798i bk14: 0a 57798i bk15: 0a 57798i 
dram_util_bins: 0 0 0 0 0 0 0 0 0 0
dram_eff_bins: 0 0 0 0 0 0 0 0 0 0
mrqq: max=1 avg=1.73016e-05
Memory Partition 2: 
Cache L2_bank_004:
MSHR contents

Cache L2_bank_005:
MSHR contents

In Dram Latency Queue (total = 0): 
DRAM[2]: 16 bks, busW=4 BL=8 CL=12, tRRD=2 tCCD=6, tRCD=12 tRAS=28 tRP=12 tRC=40
n_cmd=57798 n_nop=57567 n_act=9 n_pre=0 n_req=111 n_rd=222 n_write=0 bw_util=0.007682
n_activity=1304 dram_eff=0.3405
bk0: 10a 57765i bk1: 8a 57769i bk2: 0a 57797i bk3: 0a 57798i bk4: 20a 57745i bk5: 24a 57737i bk6: 0a 57798i bk7: 32a 57716i bk8: 0a 57796i bk9: 32a 57706i bk10: 0a 57797i bk11: 32a 57694i bk12: 0a 57798i bk13: 32a 57694i bk14: 0a 57798i bk15: 32a 57687i 
dram_util_bins: 0 0 0 0 0 0 0 0 0 0
dram_eff_bins: 0 0 0 0 0 0 0 0 0 0
mrqq: max=2 avg=0.00221461
Memory Partition 3: 
Cache L2_bank_006:
MSHR contents

Cache L2_bank_007:
MSHR contents

In Dram Latency Queue (total = 0): 
DRAM[3]: 16 bks, busW=4 BL=8 CL=12, tRRD=2 tCCD=6, tRCD=12 tRAS=28 tRP=12 tRC=40
n_cmd=57798 n_nop=57730 n_act=4 n_pre=0 n_req=32 n_rd=64 n_write=0 bw_util=0.002215
n_activity=550 dram_eff=0.2327
bk0: 12a 57763i bk1: 8a 57770i bk2: 0a 57797i bk3: 0a 57799i bk4: 20a 57744i bk5: 24a 57735i bk6: 0a 57796i bk7: 0a 57797i bk8: 0a 57797i bk9: 0a 57797i bk10: 0a 57798i bk11: 0a 57798i bk12: 0a 57798i bk13: 0a 57798i bk14: 0a 57798i bk15: 0a 57799i 
dram_util_bins: 0 0 0 0 0 0 0 0 0 0
dram_eff_bins: 0 0 0 0 0 0 0 0 0 0
mrqq: max=0 avg=0
Memory Partition 4: 
Cache L2_bank_008:
MSHR contents

Cache L2_bank_009:
MSHR contents

In Dram Latency Queue (total = 0): 
DRAM[4]: 16 bks, busW=4 BL=8 CL=12, tRRD=2 tCCD=6, tRCD=12 tRAS=28 tRP=12 tRC=40
n_cmd=57798 n_nop=57565 n_act=9 n_pre=0 n_req=112 n_rd=224 n_write=0 bw_util=0.007751
n_activity=1245 dram_eff=0.3598
bk0: 12a 57761i bk1: 8a 57769i bk2: 0a 57796i bk3: 0a 57797i bk4: 20a 57745i bk5: 24a 57734i bk6: 32a 57704i bk7: 0a 57796i bk8: 32a 57694i bk9: 0a 57798i bk10: 32a 57694i bk11: 0a 57799i bk12: 32a 57670i bk13: 0a 57799i bk14: 32a 57674i bk15: 0a 57798i 
dram_util_bins: 0 0 0 0 0 0 0 0 0 0
dram_eff_bins: 0 0 0 0 0 0 0 0 0 0
mrqq: max=3 avg=0.00221461
Memory Partition 5: 
Cache L2_bank_010:
MSHR contents

Cache L2_bank_011:
MSHR contents

In Dram Latency Queue (total = 0): 
DRAM[5]: 16 bks, busW=4 BL=8 CL=12, tRRD=2 tCCD=6, tRCD=12 tRAS=28 tRP=12 tRC=40
n_cmd=57798 n_nop=57730 n_act=4 n_pre=0 n_req=32 n_rd=64 n_write=0 bw_util=0.002215
n_activity=537 dram_eff=0.2384
bk0: 12a 57762i bk1: 8a 57769i bk2: 0a 57796i bk3: 0a 57797i bk4: 20a 57744i bk5: 24a 57735i bk6: 0a 57797i bk7: 0a 57798i bk8: 0a 57798i bk9: 0a 57798i bk10: 0a 57798i bk11: 0a 57798i bk12: 0a 57798i bk13: 0a 57798i bk14: 0a 57799i bk15: 0a 57799i 
dram_util_bins: 0 0 0 0 0 0 0 0 0 0
dram_eff_bins: 0 0 0 0 0 0 0 0 0 0
mrqq: max=0 avg=0

========= L2 cache stats =========
L2_cache_bank[0]: Access = 302, Miss = 94, Miss_rate = 0.311, Pending_hits = 11, Reservation_fails = 178
L2_cache_bank[1]: Access = 100, Miss = 14, Miss_rate = 0.140, Pending_hits = 16, Reservation_fails = 179
L2_cache_bank[2]: Access = 72, Miss = 14, Miss_rate = 0.194, Pending_hits = 16, Reservation_fails = 182
L2_cache_bank[3]: Access = 100, Miss = 14, Miss_rate = 0.140, Pending_hits = 18, Reservation_fails = 181
L2_cache_bank[4]: Access = 87, Miss = 15, Miss_rate = 0.172, Pending_hits = 19, Reservation_fails = 288
L2_cache_bank[5]: Access = 347, Miss = 96, Miss_rate = 0.277, Pending_hits = 15, Reservation_fails = 284
L2_cache_bank[6]: Access = 102, Miss = 16, Miss_rate = 0.157, Pending_hits = 22, Reservation_fails = 362
L2_cache_bank[7]: Access = 105, Miss = 16, Miss_rate = 0.152, Pending_hits = 21, Reservation_fails = 174
L2_cache_bank[8]: Access = 332, Miss = 96, Miss_rate = 0.289, Pending_hits = 17, Reservation_fails = 343
L2_cache_bank[9]: Access = 76, Miss = 16, Miss_rate = 0.211, Pending_hits = 18, Reservation_fails = 169
L2_cache_bank[10]: Access = 102, Miss = 16, Miss_rate = 0.157, Pending_hits = 16, Reservation_fails = 182
L2_cache_bank[11]: Access = 76, Miss = 16, Miss_rate = 0.211, Pending_hits = 18, Reservation_fails = 157
L2_total_cache_accesses = 1801
L2_total_cache_misses = 423
L2_total_cache_miss_rate = 0.2349
L2_total_cache_pending_hits = 207
L2_total_cache_reservation_fails = 2679
L2_total_cache_breakdown:
	L2_cache_stats_breakdown[GLOBAL_ACC_R][HIT] = 239
	L2_cache_stats_breakdown[GLOBAL_ACC_R][HIT_RESERVED] = 112
	L2_cache_stats_breakdown[GLOBAL_ACC_R][MISS] = 368
	L2_cache_stats_breakdown[GLOBAL_ACC_W][HIT] = 480
	L2_cache_stats_breakdown[INST_ACC_R][HIT] = 452
	L2_cache_stats_breakdown[INST_ACC_R][HIT_RESERVED] = 95
	L2_cache_stats_breakdown[INST_ACC_R][MISS] = 55
	L2_cache_stats_breakdown[INST_ACC_R][RESERVATION_FAIL] = 2679
L2_cache_data_port_util = 0.007
L2_cache_fill_port_util = 0.003

icnt_total_pkts_mem_to_simt=7085
icnt_total_pkts_simt_to_mem=2761
LD_mem_lat_dist  0 0 0 0 0 0 0 0 0 0 0 0 0 0 0 0 0 0 0 0 0 0 0 0 0 0 0
ST_mem_lat_dist  0 0 0 0 0 0 0 0 0 0 0 0 0 0 0 0 0 0 0 0 0 0 0 0 0 0 0
----------------------------Interconnect-DETAILS--------------------------------
Class 0:
Packet latency average = 9.96378
	minimum = 6
	maximum = 34
Network latency average = 8.9247
	minimum = 6
	maximum = 34
Slowest packet = 97
Flit latency average = 7.7354
	minimum = 6
	maximum = 34
Slowest flit = 259
Fragmentation average = 0
	minimum = 0
	maximum = 0
Injected packet rate average = 0.00456871
	minimum = 0.00246288 (at node 17)
	maximum = 0.0118218 (at node 20)
Accepted packet rate average = 0.00456871
	minimum = 0.00246288 (at node 17)
	maximum = 0.0118218 (at node 20)
Injected flit rate average = 0.0124942
	minimum = 0.00577018 (at node 2)
	maximum = 0.0457392 (at node 20)
Accepted flit rate average= 0.0124942
	minimum = 0.00387024 (at node 17)
	maximum = 0.0185068 (at node 20)
Injected packet length average = 2.73474
Accepted packet length average = 2.73474
Total in-flight flits = 0 (0 measured)
====== Overall Traffic Statistics ======
====== Traffic class 0 ======
Packet latency average = 8.8673 (2 samples)
	minimum = 6 (2 samples)
	maximum = 24 (2 samples)
Network latency average = 8.34256 (2 samples)
	minimum = 6 (2 samples)
	maximum = 24 (2 samples)
Flit latency average = 6.9239 (2 samples)
	minimum = 6 (2 samples)
	maximum = 22 (2 samples)
Fragmentation average = 0 (2 samples)
	minimum = 0 (2 samples)
	maximum = 0 (2 samples)
Injected packet rate average = 0.00240005 (2 samples)
	minimum = 0.00123144 (2 samples)
	maximum = 0.0074728 (2 samples)
Accepted packet rate average = 0.00240005 (2 samples)
	minimum = 0.00123144 (2 samples)
	maximum = 0.0074728 (2 samples)
Injected flit rate average = 0.00655805 (2 samples)
	minimum = 0.00288509 (2 samples)
	maximum = 0.0254077 (2 samples)
Accepted flit rate average = 0.00655805 (2 samples)
	minimum = 0.00193512 (2 samples)
	maximum = 0.0151105 (2 samples)
Injected packet size average = 2.73246 (2 samples)
Accepted packet size average = 2.73246 (2 samples)
Hops average = 1 (2 samples)
----------------------------END-of-Interconnect-DETAILS-------------------------


gpgpu_simulation_time = 0 days, 0 hrs, 0 min, 9 sec (9 sec)
gpgpu_simulation_rate = 99710 (inst/sec)
gpgpu_simulation_rate = 4865 (cycle/sec)

GPGPU-Sim PTX: cudaLaunch for 0x0x401ea0 (mode=performance simulation) on stream 0
[...]
gpgpu_stall_shd_mem[g_mem_ld][wb_rsrv_fail] = 0
gpgpu_stall_shd_mem[g_mem_st][mshr_rc] = 0
gpgpu_stall_shd_mem[g_mem_st][icnt_rc] = 0
gpgpu_stall_shd_mem[g_mem_st][wb_icnt_rc] = 0
gpgpu_stall_shd_mem[g_mem_st][wb_rsrv_fail] = 0
gpgpu_stall_shd_mem[l_mem_ld][mshr_rc] = 0
gpgpu_stall_shd_mem[l_mem_ld][icnt_rc] = 0
gpgpu_stall_shd_mem[l_mem_ld][wb_icnt_rc] = 0
gpgpu_stall_shd_mem[l_mem_ld][wb_rsrv_fail] = 0
gpgpu_stall_shd_mem[l_mem_st][mshr_rc] = 0
gpgpu_stall_shd_mem[l_mem_st][icnt_rc] = 0
gpgpu_stall_shd_mem[l_mem_ld][wb_icnt_rc] = 0
gpgpu_stall_shd_mem[l_mem_ld][wb_rsrv_fail] = 0
gpu_reg_bank_conflict_stalls = 0
Warp Occupancy Distribution:
Stall:1089324	W0_Idle:4392812	W0_Scoreboard:1868192	W1:4032	W2:3792	W3:3552	W4:3312	W5:3072	W6:2832	W7:2592	W8:2352	W9:2112	W10:1872	W11:1632	W12:1392	W13:1152	W14:912	W15:560	W16:450368	W17:0	W18:0	W19:0	W20:0	W21:0	W22:0	W23:0	W24:0	W25:0	W26:0	W27:0	W28:0	W29:0	W30:0	W31:0	W32:864600
traffic_breakdown_coretomem[GLOBAL_ACC_R] = 468088 {8:58511,}
traffic_breakdown_coretomem[GLOBAL_ACC_W] = 1713600 {72:23800,}
traffic_breakdown_coretomem[INST_ACC_R] = 44816 {8:5602,}
traffic_breakdown_memtocore[GLOBAL_ACC_R] = 7957496 {136:58511,}
traffic_breakdown_memtocore[GLOBAL_ACC_W] = 190400 {8:23800,}
traffic_breakdown_memtocore[INST_ACC_R] = 761872 {136:5602,}
maxmrqlatency = 25 
maxdqlatency = 0 
maxmflatency = 1034 
averagemflatency = 273 
max_icnt2mem_latency = 721 
max_icnt2sh_latency = 658387 
mrq_lat_table:1909 	104 	50 	40 	5 	0 	0 	0 	0 	0 	0 	0 	0 	0 	0 	0 	0 	0 	0 	0 	0 	0 	0 	0 	0 	0 	0 	0 	0 	0 	0 	0 	
dq_lat_table:0 	0 	0 	0 	0 	0 	0 	0 	0 	0 	0 	0 	0 	0 	0 	0 	0 	0 	0 	0 	0 	0 	0 	0 	0 	0 	0 	0 	0 	0 	0 	0 	
mf_lat_table:0 	0 	0 	0 	0 	0 	0 	41623 	37038 	3649 	1 	0 	0 	0 	0 	0 	0 	0 	0 	0 	0 	0 	0 	0 	0 	0 	0 	0 	0 	0 	0 	0 	
icnt2mem_lat_table:0 	0 	0 	40065 	11352 	9806 	11178 	11330 	4080 	102 	0 	0 	0 	0 	0 	0 	0 	0 	0 	0 	0 	0 	0 	0 	
icnt2sh_lat_table:0 	0 	0 	9216 	33242 	15123 	930 	0 	0 	0 	0 	0 	0 	15 	0 	4065 	3600 	8105 	7165 	850 	0 	0 	0 	0 	
mf_lat_pw_table:0 	0 	0 	0 	0 	0 	0 	433 	125 	0 	0 	0 	0 	0 	0 	0 	0 	0 	0 	0 	0 	0 	0 	0 	0 	0 	0 	0 	0 	0 	0 	0 	
maximum concurrent accesses to same row:
dram[0]:         0         0         0         0         0         0         0         0         0         0         0         0         0         0         0         0 
dram[1]:         0         0         0         0         0         0         0         0         0         0         0         0         0         0         0         0 
dram[2]:         0         0         0         0         0         0         0         0         0         0         0         0         0         0         0         0 
dram[3]:         0         0         0         0         0         0         0         0         0         0         0         0         0         0         0         0 
dram[4]:         0         0         0         0         0         0         0         0         0         0         0         0         0         0         0         0 
dram[5]:         0         0         0         0         0         0         0         0         0         0         0         0         0         0         0         0 
maximum service time to same row:
dram[0]:      2328      2816         0         0      1151      2182      5732      4279      5740      5325      5763      7757      5781     10260      5799     12432 
dram[1]:      3474      3579         0         0      2146      2206      4284      4259      5516      5382      7204      7757     10084     10488     12831     12466 
dram[2]:      4054      4412         0         0      2169      1140      4284      5727      5328      5757      7759      5775     10191      5793     12432      5810 
dram[3]:      4713       232         0         0      2194      2134      4260      4285      5385      5531      7760      7213     10494     10097     12469     12803 
dram[4]:     14184       504         0         0      1162      2157      5744      4284      5746      5369      5769      7763      5787     10247      5804     12437 
dram[5]:     14821      1437         0         0      2157      2182      4282      4263      5513      5403      7203      7763     10082     10522     12807     12479 
average row accesses per activate:
dram[0]:  6.000000  4.000000      -nan      -nan 10.000000 10.000000 32.000000 32.000000 32.000000 32.000000 32.000000 32.000000 32.000000 32.000000 32.000000 32.000000 
dram[1]:  6.000000  4.000000      -nan      -nan 10.000000 10.000000 32.000000 32.000000 32.000000 32.000000 32.000000 32.000000 32.000000 32.000000 32.000000 32.000000 
dram[2]:  6.000000  4.000000      -nan      -nan 10.000000 12.000000 32.000000 32.000000 32.000000 32.000000 32.000000 32.000000 32.000000 32.000000 32.000000 32.000000 
dram[3]:  6.000000  4.000000      -nan      -nan 10.000000 12.000000 32.000000 32.000000 32.000000 32.000000 32.000000 32.000000 32.000000 32.000000 32.000000 32.000000 
dram[4]:  6.000000  4.000000      -nan      -nan 10.000000 12.000000 32.000000 32.000000 32.000000 32.000000 32.000000 32.000000 32.000000 32.000000 32.000000 32.000000 
dram[5]:  6.000000  4.000000      -nan      -nan 10.000000 12.000000 32.000000 32.000000 32.000000 32.000000 32.000000 32.000000 32.000000 32.000000 32.000000 32.000000 
average row locality = 2108/84 = 25.095238
number of total memory accesses made:
dram[0]:         0         0         0         0         0         0         0         0         0         0         0         0         0         0         0         0 
dram[1]:         0         0         0         0         0         0         0         0         0         0         0         0         0         0         0         0 
dram[2]:         0         0         0         0         0         0         0         0         0         0         0         0         0         0         0         0 
dram[3]:         0         0         0         0         0         0         0         0         0         0         0         0         0         0         0         0 
dram[4]:         0         0         0         0         0         0         0         0         0         0         0         0         0         0         0         0 
dram[5]:         0         0         0         0         0         0         0         0         0         0         0         0         0         0         0         0 
total accesses: 0
min_bank_accesses = 0!
min_chip_accesses = 0!
number of total read accesses:
dram[0]:         6         4         0         0        10        10        32        32        32        32        32        32        32        32        32        32 
dram[1]:         6         4         0         0        10        10        32        32        32        32        32        32        32        32        32        32 
dram[2]:         6         4         0         0        10        12        32        32        32        32        32        32        32        32        32        32 
dram[3]:         6         4         0         0        10        12        32        32        32        32        32        32        32        32        32        32 
dram[4]:         6         4         0         0        10        12        32        32        32        32        32        32        32        32        32        32 
dram[5]:         6         4         0         0        10        12        32        32        32        32        32        32        32        32        32        32 
total reads: 2108
min_bank_accesses = 0!
chip skew: 352/350 = 1.01
number of total write accesses:
dram[0]:         0         0         0         0         0         0         0         0         0         0         0         0         0         0         0         0 
dram[1]:         0         0         0         0         0         0         0         0         0         0         0         0         0         0         0         0 
dram[2]:         0         0         0         0         0         0         0         0         0         0         0         0         0         0         0         0 
dram[3]:         0         0         0         0         0         0         0         0         0         0         0         0         0         0         0         0 
dram[4]:         0         0         0         0         0         0         0         0         0         0         0         0         0         0         0         0 
dram[5]:         0         0         0         0         0         0         0         0         0         0         0         0         0         0         0         0 
total reads: 0
min_bank_accesses = 0!
min_chip_accesses = 0!
average mf latency per bank:
dram[0]:          0         0    none      none        7642      5076     10024      7741     11673      9049     12179     12834     11990     14563     10172     13207
dram[1]:          0         0    none      none        4873      5008      6731      7190     12003      9930     13856     12179     13456     14335     11447     13698
dram[2]:          0         0    none      none        4884      8972      7959     10039      9803     11859     13615     12743     15680     12275     14014      9554
dram[3]:          0         0    none      none        4920      5171      6819      7060      9573     11401     11613     12896     14126     12441     14065     10578
dram[4]:          0         0    none      none        7928      4852     10238      7487     11841      9155     12335     12646     11436     14288      9044     13005
dram[5]:          0         0    none      none        5359      4819      7309      7348     11654     10062     13538     11988     12930     13962     10715     13854
maximum mf latency per bank:
dram[0]:          0         0         0         0       689       527       804       635       708       671       864       846       824       756       908       819
dram[1]:          0         0         0         0       582       629       592       682       745       847       687       708       687       609       719       690
dram[2]:          0         0         0         0       611       890       672       870       687       903       834      1011       761      1034       824       887
dram[3]:          0         0         0         0       572       645       560       611       649       700       701       647       638       673       678       674
dram[4]:          0         0         0         0       660       622       779       649       781       670       946       883       854       792       741       893
dram[5]:          0         0         0         0       621       641       628       625       698       891       672       762       676       617       626       613

Number of Memory Banks Accessed per Memory Operation per Warp (from 0):
0	0	0	0	0	0	0	0	0	0	0	0	0	0	0	0	0	0	0	0	0	0	0	0	0	0	0	0	0	0	0	0	0	0	0	0	0	0	0	0	0	0	0	0	0	0	0	0	0	0	0	0	0	0	0	0	0	0	0	0	0	0	0	0	0	0	0	0	0	0	0	0	0	0	0	0	0	0	0	0	0	0	0	0	0	0	0	0	0	0	0	0	0	0	0	0	
Average # of Memory Banks Accessed per Memory Operation per Warp=-nan

position of mrq chosen
0	0	0	0	0	0	0	0	0	0	0	0	0	0	0	0	

average position of mrq chosen = -nan
Memory Partition 0: 
Cache L2_bank_000:
MSHR contents

Cache L2_bank_001:
MSHR contents

In Dram Latency Queue (total = 0): 
DRAM[0]: 16 bks, busW=4 BL=8 CL=12, tRRD=2 tCCD=6, tRCD=12 tRAS=28 tRP=12 tRC=40
n_cmd=869039 n_nop=868325 n_act=14 n_pre=0 n_req=350 n_rd=700 n_write=0 bw_util=0.001611
n_activity=4223 dram_eff=0.3315
bk0: 12a 869001i bk1: 8a 869010i bk2: 0a 869038i bk3: 0a 869038i bk4: 20a 868985i bk5: 20a 868983i bk6: 64a 868884i bk7: 64a 868849i bk8: 64a 868880i bk9: 64a 868884i bk10: 64a 868849i bk11: 64a 868867i bk12: 64a 868852i bk13: 64a 868893i bk14: 64a 868844i bk15: 64a 868882i 
dram_util_bins: 0 0 0 0 0 0 0 0 0 0
dram_eff_bins: 0 0 0 0 0 0 0 0 0 0
mrqq: max=2 avg=0.000219783
Memory Partition 1: 
Cache L2_bank_002:
MSHR contents

Cache L2_bank_003:
MSHR contents

In Dram Latency Queue (total = 0): 
DRAM[1]: 16 bks, busW=4 BL=8 CL=12, tRRD=2 tCCD=6, tRCD=12 tRAS=28 tRP=12 tRC=40
n_cmd=869039 n_nop=868325 n_act=14 n_pre=0 n_req=350 n_rd=700 n_write=0 bw_util=0.001611
n_activity=4320 dram_eff=0.3241
bk0: 12a 868999i bk1: 8a 869006i bk2: 0a 869039i bk3: 0a 869041i bk4: 20a 868987i bk5: 20a 868987i bk6: 64a 868879i bk7: 64a 868837i bk8: 64a 868891i bk9: 64a 868875i bk10: 64a 868887i bk11: 64a 868873i bk12: 64a 868890i bk13: 64a 868885i bk14: 64a 868879i bk15: 64a 868877i 
dram_util_bins: 0 0 0 0 0 0 0 0 0 0
dram_eff_bins: 0 0 0 0 0 0 0 0 0 0
mrqq: max=3 avg=0.0002474
Memory Partition 2: 
Cache L2_bank_004:
MSHR contents

Cache L2_bank_005:
MSHR contents

In Dram Latency Queue (total = 0): 
DRAM[2]: 16 bks, busW=4 BL=8 CL=12, tRRD=2 tCCD=6, tRCD=12 tRAS=28 tRP=12 tRC=40
n_cmd=869039 n_nop=868321 n_act=14 n_pre=0 n_req=352 n_rd=704 n_write=0 bw_util=0.00162
n_activity=4252 dram_eff=0.3311
bk0: 12a 869001i bk1: 8a 869009i bk2: 0a 869037i bk3: 0a 869038i bk4: 20a 868985i bk5: 24a 868977i bk6: 64a 868880i bk7: 64a 868845i bk8: 64a 868893i bk9: 64a 868877i bk10: 64a 868890i bk11: 64a 868861i bk12: 64a 868893i bk13: 64a 868868i bk14: 64a 868890i bk15: 64a 868850i 
dram_util_bins: 0 0 0 0 0 0 0 0 0 0
dram_eff_bins: 0 0 0 0 0 0 0 0 0 0
mrqq: max=3 avg=0.000301482
Memory Partition 3: 
Cache L2_bank_006:
MSHR contents

Cache L2_bank_007:
MSHR contents

In Dram Latency Queue (total = 0): 
DRAM[3]: 16 bks, busW=4 BL=8 CL=12, tRRD=2 tCCD=6, tRCD=12 tRAS=28 tRP=12 tRC=40
n_cmd=869039 n_nop=868321 n_act=14 n_pre=0 n_req=352 n_rd=704 n_write=0 bw_util=0.00162
n_activity=4313 dram_eff=0.3265
bk0: 12a 868999i bk1: 8a 869008i bk2: 0a 869038i bk3: 0a 869041i bk4: 20a 868988i bk5: 24a 868981i bk6: 64a 868876i bk7: 64a 868853i bk8: 64a 868888i bk9: 64a 868861i bk10: 64a 868890i bk11: 64a 868869i bk12: 64a 868890i bk13: 64a 868859i bk14: 64a 868883i bk15: 64a 868841i 
dram_util_bins: 0 0 0 0 0 0 0 0 0 0
dram_eff_bins: 0 0 0 0 0 0 0 0 0 0
mrqq: max=2 avg=0.000233591
Memory Partition 4: 
Cache L2_bank_008:
MSHR contents

Cache L2_bank_009:
MSHR contents

In Dram Latency Queue (total = 0): 
DRAM[4]: 16 bks, busW=4 BL=8 CL=12, tRRD=2 tCCD=6, tRCD=12 tRAS=28 tRP=12 tRC=40
n_cmd=869039 n_nop=868321 n_act=14 n_pre=0 n_req=352 n_rd=704 n_write=0 bw_util=0.00162
n_activity=4227 dram_eff=0.3331
bk0: 12a 869001i bk1: 8a 869009i bk2: 0a 869036i bk3: 0a 869037i bk4: 20a 868985i bk5: 24a 868975i bk6: 64a 868878i bk7: 64a 868864i bk8: 64a 868870i bk9: 64a 868879i bk10: 64a 868865i bk11: 64a 868879i bk12: 64a 868844i bk13: 64a 868886i bk14: 64a 868847i bk15: 64a 868878i 
dram_util_bins: 0 0 0 0 0 0 0 0 0 0
dram_eff_bins: 0 0 0 0 0 0 0 0 0 0
mrqq: max=3 avg=0.0002474
Memory Partition 5: 
Cache L2_bank_010:
MSHR contents

Cache L2_bank_011:
MSHR contents

In Dram Latency Queue (total = 0): 
DRAM[5]: 16 bks, busW=4 BL=8 CL=12, tRRD=2 tCCD=6, tRCD=12 tRAS=28 tRP=12 tRC=40
n_cmd=869039 n_nop=868321 n_act=14 n_pre=0 n_req=352 n_rd=704 n_write=0 bw_util=0.00162
n_activity=4408 dram_eff=0.3194
bk0: 12a 868998i bk1: 8a 869008i bk2: 0a 869035i bk3: 0a 869038i bk4: 20a 868987i bk5: 24a 868980i bk6: 64a 868880i bk7: 64a 868841i bk8: 64a 868888i bk9: 64a 868875i bk10: 64a 868885i bk11: 64a 868877i bk12: 64a 868877i bk13: 64a 868882i bk14: 64a 868880i bk15: 64a 868855i 
dram_util_bins: 0 0 0 0 0 0 0 0 0 0
dram_eff_bins: 0 0 0 0 0 0 0 0 0 0
mrqq: max=1 avg=0.00013233

========= L2 cache stats =========
L2_cache_bank[0]: Access = 6241, Miss = 176, Miss_rate = 0.028, Pending_hits = 50, Reservation_fails = 382
L2_cache_bank[1]: Access = 7814, Miss = 174, Miss_rate = 0.022, Pending_hits = 62, Reservation_fails = 179
L2_cache_bank[2]: Access = 7300, Miss = 176, Miss_rate = 0.024, Pending_hits = 61, Reservation_fails = 235
L2_cache_bank[3]: Access = 8039, Miss = 174, Miss_rate = 0.022, Pending_hits = 80, Reservation_fails = 181
L2_cache_bank[4]: Access = 7852, Miss = 176, Miss_rate = 0.022, Pending_hits = 68, Reservation_fails = 335
L2_cache_bank[5]: Access = 6244, Miss = 176, Miss_rate = 0.028, Pending_hits = 48, Reservation_fails = 284
L2_cache_bank[6]: Access = 8037, Miss = 176, Miss_rate = 0.022, Pending_hits = 84, Reservation_fails = 362
L2_cache_bank[7]: Access = 7319, Miss = 176, Miss_rate = 0.024, Pending_hits = 61, Reservation_fails = 174
L2_cache_bank[8]: Access = 6232, Miss = 176, Miss_rate = 0.028, Pending_hits = 51, Reservation_fails = 343
L2_cache_bank[9]: Access = 7642, Miss = 176, Miss_rate = 0.023, Pending_hits = 66, Reservation_fails = 169
L2_cache_bank[10]: Access = 7313, Miss = 176, Miss_rate = 0.024, Pending_hits = 58, Reservation_fails = 182
L2_cache_bank[11]: Access = 7880, Miss = 176, Miss_rate = 0.022, Pending_hits = 81, Reservation_fails = 157
L2_total_cache_accesses = 87913
L2_total_cache_misses = 2108
L2_total_cache_miss_rate = 0.0240
L2_total_cache_pending_hits = 770
L2_total_cache_reservation_fails = 2983
L2_total_cache_breakdown:
	L2_cache_stats_breakdown[GLOBAL_ACC_R][HIT] = 55803
	L2_cache_stats_breakdown[GLOBAL_ACC_R][HIT_RESERVED] = 660
	L2_cache_stats_breakdown[GLOBAL_ACC_R][MISS] = 2048
	L2_cache_stats_breakdown[GLOBAL_ACC_W][HIT] = 23800
	L2_cache_stats_breakdown[INST_ACC_R][HIT] = 5432
	L2_cache_stats_breakdown[INST_ACC_R][HIT_RESERVED] = 110
	L2_cache_stats_breakdown[INST_ACC_R][MISS] = 60
	L2_cache_stats_breakdown[INST_ACC_R][RESERVATION_FAIL] = 2983
L2_cache_data_port_util = 0.037
L2_cache_fill_port_util = 0.001

icnt_total_pkts_mem_to_simt=344365
icnt_total_pkts_simt_to_mem=135513
LD_mem_lat_dist  0 0 0 0 0 0 0 0 0 0 0 0 0 0 0 0 0 0 0 0 0 0 0 0 0 0 0
ST_mem_lat_dist  0 0 0 0 0 0 0 0 0 0 0 0 0 0 0 0 0 0 0 0 0 0 0 0 0 0 0
----------------------------Interconnect-DETAILS--------------------------------
Class 0:
Packet latency average = 7.79167
	minimum = 6
	maximum = 12
Network latency average = 7.78125
	minimum = 6
	maximum = 12
Slowest packet = 175759
Flit latency average = 6.0814
	minimum = 6
	maximum = 8
Slowest flit = 479705
Fragmentation average = 0
	minimum = 0
	maximum = 0
Injected packet rate average = 0.000276805
	minimum = 0 (at node 0)
	maximum = 0.00373686 (at node 13)
Accepted packet rate average = 0.000276805
	minimum = 0 (at node 0)
	maximum = 0.00373686 (at node 13)
Injected flit rate average = 0.000743912
	minimum = 0 (at node 0)
	maximum = 0.0060724 (at node 13)
Accepted flit rate average= 0.000743912
	minimum = 0 (at node 0)
	maximum = 0.0140132 (at node 13)
Injected packet length average = 2.6875
Accepted packet length average = 2.6875
Total in-flight flits = 0 (0 measured)
====== Overall Traffic Statistics ======
====== Traffic class 0 ======
Packet latency average = 15.8885 (46 samples)
	minimum = 6 (46 samples)
	maximum = 116.826 (46 samples)
Network latency average = 13.0735 (46 samples)
	minimum = 6 (46 samples)
	maximum = 105.587 (46 samples)
Flit latency average = 9.9368 (46 samples)
	minimum = 6 (46 samples)
	maximum = 103.543 (46 samples)
Fragmentation average = 0.0272309 (46 samples)
	minimum = 0 (46 samples)
	maximum = 53.5 (46 samples)
Injected packet rate average = 0.016805 (46 samples)
	minimum = 0.00421591 (46 samples)
	maximum = 0.0366858 (46 samples)
Accepted packet rate average = 0.016805 (46 samples)
	minimum = 0.00421591 (46 samples)
	maximum = 0.0366858 (46 samples)
Injected flit rate average = 0.0459099 (46 samples)
	minimum = 0.00647226 (46 samples)
	maximum = 0.149098 (46 samples)
Accepted flit rate average = 0.0459099 (46 samples)
	minimum = 0.00903758 (46 samples)
	maximum = 0.0860841 (46 samples)
Injected packet size average = 2.73192 (46 samples)
Accepted packet size average = 2.73192 (46 samples)
Hops average = 1 (46 samples)
----------------------------END-of-Interconnect-DETAILS-------------------------


gpgpu_simulation_time = 0 days, 0 hrs, 3 min, 18 sec (198 sec)
gpgpu_simulation_rate = 176516 (inst/sec)
gpgpu_simulation_rate = 3325 (cycle/sec)
Time consumed(ms): 198581.587000
After LUD
>>>Verify<<<<
