

        *** GPGPU-Sim Simulator Version 3.2.2  [build 17315] ***


GPGPU-Sim PTX: simulation mode 0 (can change with PTX_SIM_MODE_FUNC environment variable:
               1=functional simulation only, 0=detailed performance simulator)
GPGPU-Sim: Configuration options:

-network_mode                           1 # Interconnection network mode
-inter_config_file   config_fermi_islip.icnt # Interconnection network config file
-gpgpu_ptx_use_cuobjdump                    1 # Use cuobjdump to extract ptx and sass from binaries
-gpgpu_experimental_lib_support                    0 # Try to extract code from cuda libraries [Broken because of unknown cudaGetExportTable]
-gpgpu_ptx_convert_to_ptxplus                    1 # Convert SASS (native ISA) to ptxplus and run ptxplus
-gpgpu_ptx_force_max_capability                   20 # Force maximum compute capability
-gpgpu_ptx_inst_debug_to_file                    0 # Dump executed instructions' debug information to file
-gpgpu_ptx_inst_debug_file       inst_debug.txt # Executed instructions' debug output file
-gpgpu_ptx_inst_debug_thread_uid                    1 # Thread UID for executed instructions' debug output
-gpgpu_simd_model                       1 # 1 = post-dominator
-gpgpu_shader_core_pipeline              1536:32 # shader core pipeline config, i.e., {<nthread>:<warpsize>}
-gpgpu_tex_cache:l1  4:128:24,L:R:m:N,F:128:4,128:2 # per-shader L1 texture cache  (READ-ONLY) config  {<nsets>:<bsize>:<assoc>,<rep>:<wr>:<alloc>:<wr_alloc>,<mshr>:<N>:<merge>,<mq>:<rf>}
-gpgpu_const_cache:l1 64:64:2,L:R:f:N,A:2:32,4 # per-shader L1 constant memory cache  (READ-ONLY) config  {<nsets>:<bsize>:<assoc>,<rep>:<wr>:<alloc>:<wr_alloc>,<mshr>:<N>:<merge>,<mq>} 
-gpgpu_cache:il1     4:128:4,L:R:f:N,A:2:32,4 # shader L1 instruction cache config  {<nsets>:<bsize>:<assoc>,<rep>:<wr>:<alloc>:<wr_alloc>,<mshr>:<N>:<merge>,<mq>} 
-gpgpu_cache:dl1     32:128:4,L:L:m:N,A:32:8,8 # per-shader L1 data cache config  {<nsets>:<bsize>:<assoc>,<rep>:<wr>:<alloc>:<wr_alloc>,<mshr>:<N>:<merge>,<mq> | none}
-gpgpu_cache:dl1PrefL1                 none # per-shader L1 data cache config  {<nsets>:<bsize>:<assoc>,<rep>:<wr>:<alloc>:<wr_alloc>,<mshr>:<N>:<merge>,<mq> | none}
-gpgpu_cache:dl1PreShared                 none # per-shader L1 data cache config  {<nsets>:<bsize>:<assoc>,<rep>:<wr>:<alloc>:<wr_alloc>,<mshr>:<N>:<merge>,<mq> | none}
-gmem_skip_L1D                          0 # global memory access skip L1D cache (implements -Xptxas -dlcm=cg, default=no skip)
-gpgpu_perfect_mem                      0 # enable perfect memory mode (no cache miss)
-n_regfile_gating_group                    4 # group of lanes that should be read/written together)
-gpgpu_clock_gated_reg_file                    0 # enable clock gated reg file for power calculations
-gpgpu_clock_gated_lanes                    0 # enable clock gated lanes for power calculations
-gpgpu_shader_registers                32768 # Number of registers per shader core. Limits number of concurrent CTAs. (default 8192)
-gpgpu_shader_cta                       8 # Maximum number of concurrent CTAs in shader (default 8)
-gpgpu_n_clusters                      15 # number of processing clusters
-gpgpu_n_cores_per_cluster                    1 # number of simd cores per cluster
-gpgpu_n_cluster_ejection_buffer_size                    8 # number of packets in ejection buffer
-gpgpu_n_ldst_response_buffer_size                    2 # number of response packets in ld/st unit ejection buffer
-gpgpu_shmem_size                   16384 # Size of shared memory per shader core (default 16kB)
-gpgpu_shmem_size                   49152 # Size of shared memory per shader core (default 16kB)
-gpgpu_shmem_size_PrefL1                16384 # Size of shared memory per shader core (default 16kB)
-gpgpu_shmem_size_PrefShared                16384 # Size of shared memory per shader core (default 16kB)
-gpgpu_shmem_num_banks                   32 # Number of banks in the shared memory in each shader core (default 16)
-gpgpu_shmem_limited_broadcast                    0 # Limit shared memory to do one broadcast per cycle (default on)
-gpgpu_shmem_warp_parts                    1 # Number of portions a warp is divided into for shared memory bank conflict check 
-gpgpu_warpdistro_shader                   -1 # Specify which shader core to collect the warp size distribution from
-gpgpu_warp_issue_shader                    0 # Specify which shader core to collect the warp issue distribution from
-gpgpu_local_mem_map                    1 # Mapping from local memory space address to simulated GPU physical address space (default = enabled)
-gpgpu_num_reg_banks                   16 # Number of register banks (default = 8)
-gpgpu_reg_bank_use_warp_id                    0 # Use warp ID in mapping registers to banks (default = off)
-gpgpu_operand_collector_num_units_sp                    6 # number of collector units (default = 4)
-gpgpu_operand_collector_num_units_sfu                    8 # number of collector units (default = 4)
-gpgpu_operand_collector_num_units_mem                    2 # number of collector units (default = 2)
-gpgpu_operand_collector_num_units_gen                    0 # number of collector units (default = 0)
-gpgpu_operand_collector_num_in_ports_sp                    2 # number of collector unit in ports (default = 1)
-gpgpu_operand_collector_num_in_ports_sfu                    1 # number of collector unit in ports (default = 1)
-gpgpu_operand_collector_num_in_ports_mem                    1 # number of collector unit in ports (default = 1)
-gpgpu_operand_collector_num_in_ports_gen                    0 # number of collector unit in ports (default = 0)
-gpgpu_operand_collector_num_out_ports_sp                    2 # number of collector unit in ports (default = 1)
-gpgpu_operand_collector_num_out_ports_sfu                    1 # number of collector unit in ports (default = 1)
-gpgpu_operand_collector_num_out_ports_mem                    1 # number of collector unit in ports (default = 1)
-gpgpu_operand_collector_num_out_ports_gen                    0 # number of collector unit in ports (default = 0)
-gpgpu_coalesce_arch                   13 # Coalescing arch (default = 13, anything else is off for now)
-gpgpu_num_sched_per_core                    2 # Number of warp schedulers per core
-gpgpu_max_insn_issue_per_warp                    1 # Max number of instructions that can be issued per warp in one cycle by scheduler
-gpgpu_simt_core_sim_order                    1 # Select the simulation order of cores in a cluster (0=Fix, 1=Round-Robin)
-gpgpu_pipeline_widths        2,1,1,2,1,1,2 # Pipeline widths ID_OC_SP,ID_OC_SFU,ID_OC_MEM,OC_EX_SP,OC_EX_SFU,OC_EX_MEM,EX_WB
-gpgpu_num_sp_units                     2 # Number of SP units (default=1)
-gpgpu_num_sfu_units                    1 # Number of SF units (default=1)
-gpgpu_num_mem_units                    1 # Number if ldst units (default=1) WARNING: not hooked up to anything
-gpgpu_scheduler                      gto # Scheduler configuration: < lrr | gto | two_level_active > If two_level_active:<num_active_warps>:<inner_prioritization>:<outer_prioritization>For complete list of prioritization values see shader.h enum scheduler_prioritization_typeDefault: gto
-gpgpu_dram_scheduler                    1 # 0 = fifo, 1 = FR-FCFS (defaul)
-gpgpu_dram_partition_queues              8:8:8:8 # i2$:$2d:d2$:$2i
-l2_ideal                               0 # Use a ideal L2 cache that always hit
-gpgpu_cache:dl2     64:128:8,L:B:m:W,A:32:4,4:0,32 # unified banked L2 data cache config  {<nsets>:<bsize>:<assoc>,<rep>:<wr>:<alloc>:<wr_alloc>,<mshr>:<N>:<merge>,<mq>}
-gpgpu_cache:dl2_texture_only                    0 # L2 cache used for texture only
-gpgpu_n_mem                            6 # number of memory modules (e.g. memory controllers) in gpu
-gpgpu_n_sub_partition_per_mchannel                    2 # number of memory subpartition in each memory module
-gpgpu_n_mem_per_ctrlr                    2 # number of memory chips per memory controller
-gpgpu_memlatency_stat                    0 # track and display latency statistics 0x2 enables MC, 0x4 enables queue logs
-gpgpu_frfcfs_dram_sched_queue_size                   16 # 0 = unlimited (default); # entries per chip
-gpgpu_dram_return_queue_size                  116 # 0 = unlimited (default); # entries per chip
-gpgpu_dram_buswidth                    4 # default = 4 bytes (8 bytes per cycle at DDR)
-gpgpu_dram_burst_length                    8 # Burst length of each DRAM request (default = 4 data bus cycle)
-dram_data_command_freq_ratio                    4 # Frequency ratio between DRAM data bus and command bus (default = 2 times, i.e. DDR)
-gpgpu_dram_timing_opt nbk=16:CCD=2:RRD=6:RCD=12:RAS=28:RP=12:RC=40: CL=12:WL=4:CDLR=5:WR=12:nbkgrp=4:CCDL=3:RTPL=2 # DRAM timing parameters = {nbk:tCCD:tRRD:tRCD:tRAS:tRP:tRC:CL:WL:tCDLR:tWR:nbkgrp:tCCDL:tRTPL}
-rop_latency                          120 # ROP queue latency (default 85)
-dram_latency                         100 # DRAM latency (default 30)
-gpgpu_mem_addr_mapping dramid@8;00000000.00000000.00000000.00000000.0000RRRR.RRRRRRRR.BBBCCCCB.CCSSSSSS # mapping memory address to dram model {dramid@<start bit>;<memory address map>}
-gpgpu_mem_addr_test                    0 # run sweep test to check address mapping for aliased address
-gpgpu_mem_address_mask                    1 # 0 = old addressing mask, 1 = new addressing mask, 2 = new add. mask + flipped bank sel and chip sel bits
-gpuwattch_xml_file  gpuwattch_gtx480.xml # GPUWattch XML file
-power_simulation_enabled                    0 # Turn on power simulator (1=On, 0=Off)
-power_per_cycle_dump                    0 # Dump detailed power output each cycle
-power_trace_enabled                    0 # produce a file for the power trace (1=On, 0=Off)
-power_trace_zlevel                     6 # Compression level of the power trace output log (0=no comp, 9=highest)
-steady_power_levels_enabled                    0 # produce a file for the steady power levels (1=On, 0=Off)
-steady_state_definition                  8:4 # allowed deviation:number of samples
-gpgpu_max_cycle                        0 # terminates gpu simulation early (0 = no limit)
-gpgpu_max_insn                         0 # terminates gpu simulation early (0 = no limit)
-gpgpu_max_cta                          0 # terminates gpu simulation early (0 = no limit)
-gpgpu_runtime_stat               10000:0 # display runtime statistics such as dram utilization {<freq>:<flag>}
-liveness_message_freq                    1 # Minimum number of seconds between simulation liveness messages (0 = always print)
-gpgpu_flush_l1_cache                    0 # Flush L1 cache at the end of each kernel call
-gpgpu_flush_l2_cache                    0 # Flush L2 cache at the end of each kernel call
-gpgpu_deadlock_detect                    1 # Stop the simulation at deadlock (1=on (default), 0=off)
-gpgpu_ptx_instruction_classification                    0 # if enabled will classify ptx instruction types per kernel (Max 255 kernels now)
-gpgpu_ptx_sim_mode                     0 # Select between Performance (default) or Functional simulation (1)
-gpgpu_clock_domains 700.0:700.0:700.0:924.0 # Clock Domain Frequencies in MhZ {<Core Clock>:<ICNT Clock>:<L2 Clock>:<DRAM Clock>}
-gpgpu_max_concurrent_kernel                    8 # maximum kernels that can run concurrently on GPU
-gpgpu_cflog_interval                    0 # Interval between each snapshot in control flow logger
-visualizer_enabled                     0 # Turn on visualizer output (1=On, 0=Off)
-visualizer_outputfile                 NULL # Specifies the output log file for visualizer
-visualizer_zlevel                      6 # Compression level of the visualizer output log (0=no comp, 9=highest)
-trace_enabled                          0 # Turn on traces
-trace_components                    none # comma seperated list of traces to enable. Complete list found in trace_streams.tup. Default none
-trace_sampling_core                    0 # The core which is printed using CORE_DPRINTF. Default 0
-trace_sampling_memory_partition                   -1 # The memory partition which is printed using MEMPART_DPRINTF. Default -1 (i.e. all)
-enable_ptx_file_line_stats                    1 # Turn on PTX source line statistic profiling. (1 = On)
-ptx_line_stats_filename             Prof.log # Output file for PTX source line statistics.
-save_embedded_ptx                      0 # saves ptx files embedded in binary as <n>.ptx
-keep                                   0 # keep intermediate files created by GPGPU-Sim when interfacing with external programs
-gpgpu_ptx_save_converted_ptxplus                    1 # Saved converted ptxplus to a file
-ptx_opcode_latency_int         4,13,4,5,145 # Opcode latencies for integers <ADD,MAX,MUL,MAD,DIV>Default 1,1,19,25,145
-ptx_opcode_latency_fp          4,13,4,5,39 # Opcode latencies for single precision floating points <ADD,MAX,MUL,MAD,DIV>Default 1,1,1,1,30
-ptx_opcode_latency_dp         8,19,8,8,330 # Opcode latencies for double precision floating points <ADD,MAX,MUL,MAD,DIV>Default 8,8,8,8,335
-ptx_opcode_initiation_int            1,2,2,1,8 # Opcode initiation intervals for integers <ADD,MAX,MUL,MAD,DIV>Default 1,1,4,4,32
-ptx_opcode_initiation_fp            1,2,1,1,4 # Opcode initiation intervals for single precision floating points <ADD,MAX,MUL,MAD,DIV>Default 1,1,1,1,5
-ptx_opcode_initiation_dp         8,16,8,8,130 # Opcode initiation intervals for double precision floating points <ADD,MAX,MUL,MAD,DIV>Default 8,8,8,8,130
DRAM Timing Options:
nbk                                    16 # number of banks
CCD                                     2 # column to column delay
RRD                                     6 # minimal delay between activation of rows in different banks
RCD                                    12 # row to column delay
RAS                                    28 # time needed to activate row
RP                                     12 # time needed to precharge (deactivate) row
RC                                     40 # row cycle time
CDLR                                    5 # switching from write to read (changes tWTR)
WR                                     12 # last data-in to row precharge
CL                                     12 # CAS latency
WL                                      4 # Write latency
nbkgrp                                  4 # number of bank groups
CCDL                                    3 # column to column delay between accesses to different bank groups
RTPL                                    2 # read to precharge delay between accesses to different bank groups
Total number of memory sub partition = 12
addr_dec_mask[CHIP]  = 0000000000000000 	high:64 low:0
addr_dec_mask[BK]    = 000000000000e100 	high:16 low:8
addr_dec_mask[ROW]   = 000000000fff0000 	high:28 low:16
addr_dec_mask[COL]   = 0000000000001eff 	high:13 low:0
addr_dec_mask[BURST] = 000000000000003f 	high:6 low:0
sub_partition_id_mask = 0000000000000100
GPGPU-Sim uArch: clock freqs: 700000000.000000:700000000.000000:700000000.000000:924000000.000000
GPGPU-Sim uArch: clock periods: 0.00000000142857142857:0.00000000142857142857:0.00000000142857142857:0.00000000108225108225
*** Initializing Memory Statistics ***
GPGPU-Sim uArch: interconnect node map (shaderID+MemID to icntID)
GPGPU-Sim uArch: Memory nodes ID start from index: 15
GPGPU-Sim uArch:    0   1   2   3   4
GPGPU-Sim uArch:    5   6   7   8   9
GPGPU-Sim uArch:   10  11  12  13  14
GPGPU-Sim uArch:   15  16  17  18  19
GPGPU-Sim uArch:   20  21  22  23  24
GPGPU-Sim uArch:   25  26
GPGPU-Sim uArch: interconnect node reverse map (icntID to shaderID+MemID)
GPGPU-Sim uArch: Memory nodes start from ID: 15
GPGPU-Sim uArch:    0   1   2   3   4
GPGPU-Sim uArch:    5   6   7   8   9
GPGPU-Sim uArch:   10  11  12  13  14
GPGPU-Sim uArch:   15  16  17  18  19
GPGPU-Sim uArch:   20  21  22  23  24
GPGPU-Sim uArch:   25  26
1dbc7ad30598405c70b7a802708475a9  /home/archit/Work/1_Benchmarks/rodinia_3.0/cuda/hotspot/hotspot
GPGPU-Sim uArch: performance model initialization complete.
GPGPU-Sim PTX: __cudaRegisterFatBinary, fat_cubin_handle = 1, filename=hotspot.cu
self exe links to: /home/archit/Work/1_Benchmarks/rodinia_3.0/cuda/hotspot/hotspot
Running md5sum using "md5sum /home/archit/Work/1_Benchmarks/rodinia_3.0/cuda/hotspot/hotspot "
Running cuobjdump using "$CUDA_INSTALL_PATH/bin/cuobjdump -ptx -elf -sass /home/archit/Work/1_Benchmarks/rodinia_3.0/cuda/hotspot/hotspot > _cuobjdump_complete_output_nOPbX4"
Parsing file _cuobjdump_complete_output_nOPbX4
######### cuobjdump parser ########
## Adding new section PTX
Adding ptx filename: _cuobjdump_1.ptx
Adding arch: sm_10
Adding identifier: hotspot.cu
## Adding new section ELF
Adding arch: sm_10
Adding identifier: hotspot.cu
Done parsing!!!
GPGPU-Sim: WARNING: Capability >= 20 are not supported in PTXPlus
	Setting forced_max_capability to 19
GPGPU-Sim PTX: __cudaRegisterFunction _Z14calculate_tempiPfS_S_iiiiffffff : hostFun 0x0x401bc4, fat_cubin_handle = 1
GPGPU-Sim PTX: converting EMBEDDED .ptx file to ptxplus 
RUNNING cuobjdump_to_ptxplus ...
Parsing .elf file _cuobjdump_1.elf
()


Finished parsing .elf file _cuobjdump_1.elf
Parsing .ptx file _cuobjdump_1.ptx
Finished parsing .ptx file _cuobjdump_1.ptx
Parsing .sass file _cuobjdump_1.sass
Finished parsing .sass file _cuobjdump_1.sass
DONE. 
GPGPU-Sim PTX: calling cuobjdump_to_ptxplus
commandline: $GPGPUSIM_ROOT/build/$GPGPUSIM_CONFIG/cuobjdump_to_ptxplus/cuobjdump_to_ptxplus _cuobjdump_1.ptx _cuobjdump_1.sass _cuobjdump_1.elf _ptxplus_JRi5EM
GPGPU-Sim PTX: DONE converting EMBEDDED .ptx file to ptxplus 
GPGPU-Sim PTX: allocating constant region for "constant1_Z14calculate_tempiPfS_S_iiiiffffff" from 0x100 to 0x114 (global memory space) 1
GPGPU-Sim PTX: PTX uses two scalar type intruction with literal operand.
GPGPU-Sim PTX: instruction assembly for function '_Z14calculate_tempiPfS_S_iiiiffffff'...   done.
GPGPU-Sim PTX: finding reconvergence points for '_Z14calculate_tempiPfS_S_iiiiffffff'...
GPGPU-Sim PTX: Warning detected predicated return/exit.
GPGPU-Sim PTX: Finding dominators for '_Z14calculate_tempiPfS_S_iiiiffffff'...
GPGPU-Sim PTX: Finding immediate dominators for '_Z14calculate_tempiPfS_S_iiiiffffff'...
GPGPU-Sim PTX: Finding postdominators for '_Z14calculate_tempiPfS_S_iiiiffffff'...
GPGPU-Sim PTX: Finding immediate postdominators for '_Z14calculate_tempiPfS_S_iiiiffffff'...
GPGPU-Sim PTX: pre-decoding instructions for '_Z14calculate_tempiPfS_S_iiiiffffff'...
GPGPU-Sim PTX: reconvergence points for _Z14calculate_tempiPfS_S_iiiiffffff...
GPGPU-Sim PTX:  1 (potential) branch divergence @  PC=0x060 (_1.ptx:55) @$p0.sf bra l0x00000158;
GPGPU-Sim PTX:    immediate post dominator      @  PC=0x158 (_1.ptx:87) l0x00000158: nop;
GPGPU-Sim PTX:  2 (potential) branch divergence @  PC=0x078 (_1.ptx:58) @$p0.ne bra l0x00000158;
GPGPU-Sim PTX:    immediate post dominator      @  PC=0x158 (_1.ptx:87) l0x00000158: nop;
GPGPU-Sim PTX:  3 (potential) branch divergence @  PC=0x0c0 (_1.ptx:67) @$p0.sf bra l0x00000158;
GPGPU-Sim PTX:    immediate post dominator      @  PC=0x158 (_1.ptx:87) l0x00000158: nop;
GPGPU-Sim PTX:  4 (potential) branch divergence @  PC=0x0d8 (_1.ptx:70) @$p0.ne bra l0x00000158;
GPGPU-Sim PTX:    immediate post dominator      @  PC=0x158 (_1.ptx:87) l0x00000158: nop;
GPGPU-Sim PTX:  5 (potential) branch divergence @  PC=0x170 (_1.ptx:90) @$p0.ne bra l0x00000530;
GPGPU-Sim PTX:    immediate post dominator      @  PC=0x558 (_1.ptx:218) l0x00000558: @$p0.eq retp;
GPGPU-Sim PTX:  6 (potential) branch divergence @  PC=0x308 (_1.ptx:143) @$p0.ne bra l0x000004a8;
GPGPU-Sim PTX:    immediate post dominator      @  PC=0x4a8 (_1.ptx:196) l0x000004a8: nop;
GPGPU-Sim PTX:  7 (potential) branch divergence @  PC=0x320 (_1.ptx:146) @$p0.ne bra l0x000004a8;
GPGPU-Sim PTX:    immediate post dominator      @  PC=0x4a8 (_1.ptx:196) l0x000004a8: nop;
GPGPU-Sim PTX:  8 (potential) branch divergence @  PC=0x330 (_1.ptx:148) @$p0.ne bra l0x000004a8;
GPGPU-Sim PTX:    immediate post dominator      @  PC=0x4a8 (_1.ptx:196) l0x000004a8: nop;
GPGPU-Sim PTX:  9 (potential) branch divergence @  PC=0x340 (_1.ptx:150) @$p0.ne bra l0x000004a8;
GPGPU-Sim PTX:    immediate post dominator      @  PC=0x4a8 (_1.ptx:196) l0x000004a8: nop;
GPGPU-Sim PTX: 10 (potential) branch divergence @  PC=0x350 (_1.ptx:152) @$p0.ne bra l0x000004a8;
GPGPU-Sim PTX:    immediate post dominator      @  PC=0x4a8 (_1.ptx:196) l0x000004a8: nop;
GPGPU-Sim PTX: 11 (potential) branch divergence @  PC=0x360 (_1.ptx:154) @$p0.ne bra l0x000004a8;
GPGPU-Sim PTX:    immediate post dominator      @  PC=0x4a8 (_1.ptx:196) l0x000004a8: nop;
GPGPU-Sim PTX: 12 (potential) branch divergence @  PC=0x370 (_1.ptx:156) @$p0.ne bra l0x000004a8;
GPGPU-Sim PTX:    immediate post dominator      @  PC=0x4a8 (_1.ptx:196) l0x000004a8: nop;
GPGPU-Sim PTX: 13 (potential) branch divergence @  PC=0x380 (_1.ptx:158) @$p0.ne bra l0x000004a8;
GPGPU-Sim PTX:    immediate post dominator      @  PC=0x4a8 (_1.ptx:196) l0x000004a8: nop;
GPGPU-Sim PTX: 14 (potential) branch divergence @  PC=0x4c0 (_1.ptx:199) @$p0.ne bra l0x00000548;
GPGPU-Sim PTX:    immediate post dominator      @  PC=0x558 (_1.ptx:218) l0x00000558: @$p0.eq retp;
GPGPU-Sim PTX: 15 (potential) branch divergence @  PC=0x520 (_1.ptx:211) @$p1.ne bra l0x000002e8;
GPGPU-Sim PTX:    immediate post dominator      @  PC=0x558 (_1.ptx:218) l0x00000558: @$p0.eq retp;
GPGPU-Sim PTX: 16 (potential) branch divergence @  PC=0x528 (_1.ptx:212) bra l0x00000558;
GPGPU-Sim PTX:    immediate post dominator      @  PC=0x558 (_1.ptx:218) l0x00000558: @$p0.eq retp;
GPGPU-Sim PTX: 17 (potential) branch divergence @  PC=0x540 (_1.ptx:215) bra l0x00000558;
GPGPU-Sim PTX:    immediate post dominator      @  PC=0x558 (_1.ptx:218) l0x00000558: @$p0.eq retp;
GPGPU-Sim PTX: 18 (potential) branch divergence @  PC=0x550 (_1.ptx:217) bra l0x00000558;
GPGPU-Sim PTX:    immediate post dominator      @  PC=0x558 (_1.ptx:218) l0x00000558: @$p0.eq retp;
GPGPU-Sim PTX: ... end of reconvergence points for _Z14calculate_tempiPfS_S_iiiiffffff
GPGPU-Sim PTX: ... done pre-decoding instructions for '_Z14calculate_tempiPfS_S_iiiiffffff'.
GPGPU-Sim PTX: finished parsing EMBEDDED .ptx file _1.ptx
Adding _cuobjdump_1.ptx with cubin handle 1
GPGPU-Sim PTX: extracting embedded .ptx to temporary file "_ptx_D887ou"
Running: cat _ptx_D887ou | sed 's/.version 1.5/.version 1.4/' | sed 's/, texmode_independent//' | sed 's/\(\.extern \.const\[1\] .b8 \w\+\)\[\]/\1\[1\]/' | sed 's/const\[.\]/const\[0\]/g' > _ptx2_XaOb9b
GPGPU-Sim PTX: generating ptxinfo using "$CUDA_INSTALL_PATH/bin/ptxas --gpu-name=sm_20 -v _ptx2_XaOb9b --output-file  /dev/null 2> _ptx_D887ouinfo"
GPGPU-Sim PTX: Kernel '_Z14calculate_tempiPfS_S_iiiiffffff' : regs=35, lmem=0, smem=3072, cmem=104
GPGPU-Sim PTX: removing ptxinfo using "rm -f _ptx_D887ou _ptx2_XaOb9b _ptx_D887ouinfo"
GPGPU-Sim PTX: loading globals with explicit initializers... 
GPGPU-Sim PTX: finished loading globals (0 bytes total).
GPGPU-Sim PTX: loading constants with explicit initializers...  done.
WG size of kernel = 16 X 16
pyramidHeight: 2
gridSize: [512, 512]
border:[2, 2]
blockGrid:[43, 43]
targetBlock:[12, 12]
Start computing the transient temperature

GPGPU-Sim PTX: cudaLaunch for 0x0x401bc4 (mode=performance simulation) on stream 0
GPGPU-Sim PTX: pushing kernel '_Z14calculate_tempiPfS_S_iiiiffffff' to stream 0, gridDim= (43,43,1) blockDim = (16,16,1) 
kernel '_Z14calculate_tempiPfS_S_iiiiffffff' transfer to GPU hardware scheduler
GPGPU-Sim uArch: Shader 1 bind to kernel 1 '_Z14calculate_tempiPfS_S_iiiiffffff'
GPGPU-Sim uArch: CTA/core = 3, limited by: regs
GPGPU-Sim uArch: core:  1, cta: 0 initialized @(1,0)
GPGPU-Sim uArch: Shader 2 bind to kernel 1 '_Z14calculate_tempiPfS_S_iiiiffffff'
GPGPU-Sim uArch: core:  2, cta: 0 initialized @(1,0)
GPGPU-Sim uArch: Shader 3 bind to kernel 1 '_Z14calculate_tempiPfS_S_iiiiffffff'
GPGPU-Sim uArch: core:  3, cta: 0 initialized @(1,0)
GPGPU-Sim uArch: Shader 4 bind to kernel 1 '_Z14calculate_tempiPfS_S_iiiiffffff'
GPGPU-Sim uArch: core:  4, cta: 0 initialized @(1,0)
GPGPU-Sim uArch: Shader 5 bind to kernel 1 '_Z14calculate_tempiPfS_S_iiiiffffff'
GPGPU-Sim uArch: core:  5, cta: 0 initialized @(1,0)
GPGPU-Sim uArch: Shader 6 bind to kernel 1 '_Z14calculate_tempiPfS_S_iiiiffffff'
GPGPU-Sim uArch: core:  6, cta: 0 initialized @(1,0)
GPGPU-Sim uArch: Shader 7 bind to kernel 1 '_Z14calculate_tempiPfS_S_iiiiffffff'
GPGPU-Sim uArch: core:  7, cta: 0 initialized @(1,0)
GPGPU-Sim uArch: Shader 8 bind to kernel 1 '_Z14calculate_tempiPfS_S_iiiiffffff'
GPGPU-Sim uArch: core:  8, cta: 0 initialized @(1,0)
GPGPU-Sim uArch: Shader 9 bind to kernel 1 '_Z14calculate_tempiPfS_S_iiiiffffff'
GPGPU-Sim uArch: core:  9, cta: 0 initialized @(1,0)
GPGPU-Sim uArch: Shader 10 bind to kernel 1 '_Z14calculate_tempiPfS_S_iiiiffffff'
GPGPU-Sim uArch: core: 10, cta: 0 initialized @(1,0)
GPGPU-Sim uArch: Shader 11 bind to kernel 1 '_Z14calculate_tempiPfS_S_iiiiffffff'
GPGPU-Sim uArch: core: 11, cta: 0 initialized @(1,0)
GPGPU-Sim uArch: Shader 12 bind to kernel 1 '_Z14calculate_tempiPfS_S_iiiiffffff'
GPGPU-Sim uArch: core: 12, cta: 0 initialized @(1,0)
GPGPU-Sim uArch: Shader 13 bind to kernel 1 '_Z14calculate_tempiPfS_S_iiiiffffff'
GPGPU-Sim uArch: core: 13, cta: 0 initialized @(1,0)
GPGPU-Sim uArch: Shader 14 bind to kernel 1 '_Z14calculate_tempiPfS_S_iiiiffffff'
GPGPU-Sim uArch: core: 14, cta: 0 initialized @(1,0)
GPGPU-Sim uArch: Shader 0 bind to kernel 1 '_Z14calculate_tempiPfS_S_iiiiffffff'
GPGPU-Sim uArch: core:  0, cta: 0 initialized @(1,0)
GPGPU-Sim uArch: core:  1, cta: 1 initialized @(2,0)
GPGPU-Sim uArch: core:  2, cta: 1 initialized @(2,0)
GPGPU-Sim uArch: core:  3, cta: 1 initialized @(2,0)
GPGPU-Sim uArch: core:  4, cta: 1 initialized @(2,0)
GPGPU-Sim uArch: core:  5, cta: 1 initialized @(2,0)
GPGPU-Sim uArch: core:  6, cta: 1 initialized @(2,0)
GPGPU-Sim uArch: core:  7, cta: 1 initialized @(2,0)
GPGPU-Sim uArch: core:  8, cta: 1 initialized @(2,0)
GPGPU-Sim uArch: core:  9, cta: 1 initialized @(2,0)
GPGPU-Sim uArch: core: 10, cta: 1 initialized @(2,0)
GPGPU-Sim uArch: core: 11, cta: 1 initialized @(2,0)
GPGPU-Sim uArch: core: 12, cta: 1 initialized @(2,0)
GPGPU-Sim uArch: core: 13, cta: 1 initialized @(2,0)
GPGPU-Sim uArch: core: 14, cta: 1 initialized @(2,0)
GPGPU-Sim uArch: core:  0, cta: 1 initialized @(2,0)
GPGPU-Sim uArch: core:  1, cta: 2 initialized @(3,0)
GPGPU-Sim uArch: core:  2, cta: 2 initialized @(3,0)
GPGPU-Sim uArch: core:  3, cta: 2 initialized @(3,0)
GPGPU-Sim uArch: core:  4, cta: 2 initialized @(3,0)
GPGPU-Sim uArch: core:  5, cta: 2 initialized @(3,0)
GPGPU-Sim uArch: core:  6, cta: 2 initialized @(3,0)
GPGPU-Sim uArch: core:  7, cta: 2 initialized @(3,0)
GPGPU-Sim uArch: core:  8, cta: 2 initialized @(3,0)
GPGPU-Sim uArch: core:  9, cta: 2 initialized @(3,0)
GPGPU-Sim uArch: core: 10, cta: 2 initialized @(3,0)
GPGPU-Sim uArch: core: 11, cta: 2 initialized @(3,0)
GPGPU-Sim uArch: core: 12, cta: 2 initialized @(3,0)
GPGPU-Sim uArch: core: 13, cta: 2 initialized @(3,0)
GPGPU-Sim uArch: core: 14, cta: 2 initialized @(3,0)
GPGPU-Sim uArch: core:  0, cta: 2 initialized @(3,0)
GPGPU-Sim PTX: 100000 instructions simulated : ctaid=(29,0,0) tid=(15,11,0)
GPGPU-Sim PTX: 200000 instructions simulated : ctaid=(23,0,0) tid=(15,5,0)
GPGPU-Sim PTX: 300000 instructions simulated : ctaid=(35,0,0) tid=(3,11,0)
GPGPU-Sim PTX: 400000 instructions simulated : ctaid=(14,0,0) tid=(3,5,0)
GPGPU-Sim PTX: WARNING (_1.ptx:89) ** reading undefined register '$r124' (cuid:0). Setting to 0X00000000. This is okay if you are simulating the native ISA
GPGPU-Sim PTX: 500000 instructions simulated : ctaid=(9,0,0) tid=(11,1,0)
GPGPU-Sim PTX: 600000 instructions simulated : ctaid=(7,0,0) tid=(11,4,0)
GPGPU-Sim PTX: 700000 instructions simulated : ctaid=(36,0,0) tid=(3,3,0)
GPGPU-Sim PTX: 800000 instructions simulated : ctaid=(30,0,0) tid=(3,13,0)
GPGPU-Sim PTX: 900000 instructions simulated : ctaid=(29,0,0) tid=(3,1,0)
GPGPU-Sim PTX: 1000000 instructions simulated : ctaid=(35,0,0) tid=(3,1,0)
GPGPU-Sim PTX: 1100000 instructions simulated : ctaid=(25,0,0) tid=(4,4,0)
GPGPU-Sim PTX: 1200000 instructions simulated : ctaid=(27,0,0) tid=(6,11,0)
GPGPU-Sim PTX: 1300000 instructions simulated : ctaid=(12,0,0) tid=(3,7,0)
GPGPU-Sim PTX: 1400000 instructions simulated : ctaid=(27,0,0) tid=(2,8,0)
GPGPU-Sim PTX: 1500000 instructions simulated : ctaid=(42,0,0) tid=(9,9,0)
GPGPU-Sim PTX: 1600000 instructions simulated : ctaid=(35,0,0) tid=(12,6,0)
GPGPU-Sim PTX: 1700000 instructions simulated : ctaid=(6,0,0) tid=(1,2,0)
GPGPU-Sim PTX: 1800000 instructions simulated : ctaid=(11,0,0) tid=(1,2,0)
GPGPU-Sim PTX: 1900000 instructions simulated : ctaid=(8,0,0) tid=(7,7,0)
GPGPU-Sim PTX: 2000000 instructions simulated : ctaid=(16,0,0) tid=(7,3,0)
GPGPU-Sim PTX: 2100000 instructions simulated : ctaid=(30,0,0) tid=(3,9,0)
GPGPU-Sim PTX: 2200000 instructions simulated : ctaid=(28,0,0) tid=(1,7,0)
GPGPU-Sim PTX: 2300000 instructions simulated : ctaid=(22,0,0) tid=(11,6,0)
GPGPU-Sim uArch: Shader 10 finished CTA #0 (6148,0), 2 CTAs running
GPGPU-Sim uArch: core: 10, cta: 0 initialized @(6149,0)
GPGPU-Sim uArch: Shader 7 finished CTA #0 (6206,0), 2 CTAs running
GPGPU-Sim uArch: core:  7, cta: 0 initialized @(6207,0)
GPGPU-Sim uArch: Shader 13 finished CTA #0 (6211,0), 2 CTAs running
GPGPU-Sim uArch: core: 13, cta: 0 initialized @(6212,0)
GPGPU-Sim uArch: Shader 13 finished CTA #1 (6326,0), 2 CTAs running
GPGPU-Sim uArch: core: 13, cta: 1 initialized @(6327,0)
GPGPU-Sim uArch: Shader 12 finished CTA #0 (6338,0), 2 CTAs running
GPGPU-Sim uArch: core: 12, cta: 0 initialized @(6339,0)
GPGPU-Sim uArch: Shader 1 finished CTA #0 (6352,0), 2 CTAs running
GPGPU-Sim uArch: core:  1, cta: 0 initialized @(6353,0)
GPGPU-Sim PTX: 2400000 instructions simulated : ctaid=(3,1,0) tid=(1,15,0)
GPGPU-Sim uArch: Shader 9 finished CTA #0 (6370,0), 2 CTAs running
GPGPU-Sim uArch: core:  9, cta: 0 initialized @(6371,0)
GPGPU-Sim uArch: Shader 4 finished CTA #0 (6372,0), 2 CTAs running
GPGPU-Sim uArch: core:  4, cta: 0 initialized @(6373,0)
GPGPU-Sim uArch: Shader 5 finished CTA #1 (6402,0), 2 CTAs running
GPGPU-Sim uArch: core:  5, cta: 1 initialized @(6403,0)
GPGPU-Sim uArch: Shader 4 finished CTA #1 (6411,0), 2 CTAs running
GPGPU-Sim uArch: core:  4, cta: 1 initialized @(6412,0)
GPGPU-Sim uArch: Shader 1 finished CTA #1 (6419,0), 2 CTAs running
GPGPU-Sim uArch: Shader 5 finished CTA #0 (6419,0), 2 CTAs running
GPGPU-Sim uArch: Shader 8 finished CTA #0 (6419,0), 2 CTAs running
GPGPU-Sim uArch: core:  5, cta: 0 initialized @(6420,0)
GPGPU-Sim uArch: core:  8, cta: 0 initialized @(6420,0)
GPGPU-Sim uArch: core:  1, cta: 1 initialized @(6420,0)
GPGPU-Sim uArch: Shader 14 finished CTA #1 (6422,0), 2 CTAs running
GPGPU-Sim uArch: core: 14, cta: 1 initialized @(6423,0)
GPGPU-Sim uArch: Shader 10 finished CTA #1 (6441,0), 2 CTAs running
GPGPU-Sim uArch: core: 10, cta: 1 initialized @(6442,0)
GPGPU-Sim uArch: Shader 6 finished CTA #1 (6442,0), 2 CTAs running
GPGPU-Sim uArch: core:  6, cta: 1 initialized @(6443,0)
GPGPU-Sim uArch: Shader 2 finished CTA #1 (6458,0), 2 CTAs running
GPGPU-Sim uArch: core:  2, cta: 1 initialized @(6459,0)
GPGPU-Sim uArch: Shader 6 finished CTA #0 (6477,0), 2 CTAs running
GPGPU-Sim uArch: core:  6, cta: 0 initialized @(6478,0)
GPGPU-Sim uArch: Shader 7 finished CTA #1 (6488,0), 2 CTAs running
GPGPU-Sim uArch: core:  7, cta: 1 initialized @(6489,0)
GPGPU-Sim uArch: Shader 0 finished CTA #1 (6494,0), 2 CTAs running
GPGPU-Sim uArch: Shader 3 finished CTA #1 (6494,0), 2 CTAs running
GPGPU-Sim uArch: core:  0, cta: 1 initialized @(6495,0)
GPGPU-Sim uArch: core:  3, cta: 1 initialized @(6495,0)
GPGPU-Sim uArch: Shader 14 finished CTA #0 (6507,0), 2 CTAs running
GPGPU-Sim uArch: core: 14, cta: 0 initialized @(6508,0)
GPGPU-Sim uArch: Shader 2 finished CTA #0 (6513,0), 2 CTAs running
GPGPU-Sim uArch: core:  2, cta: 0 initialized @(6514,0)
GPGPU-Sim uArch: Shader 1 finished CTA #2 (6515,0), 2 CTAs running
GPGPU-Sim uArch: Shader 3 finished CTA #0 (6515,0), 2 CTAs running
GPGPU-Sim uArch: core:  3, cta: 0 initialized @(6516,0)
GPGPU-Sim uArch: core:  1, cta: 2 initialized @(6516,0)
GPGPU-Sim uArch: Shader 11 finished CTA #0 (6521,0), 2 CTAs running
GPGPU-Sim uArch: core: 11, cta: 0 initialized @(6522,0)
GPGPU-Sim uArch: Shader 0 finished CTA #0 (6523,0), 2 CTAs running
GPGPU-Sim uArch: core:  0, cta: 0 initialized @(6524,0)
GPGPU-Sim uArch: Shader 9 finished CTA #1 (6536,0), 2 CTAs running
GPGPU-Sim uArch: core:  9, cta: 1 initialized @(6537,0)
GPGPU-Sim uArch: Shader 2 finished CTA #2 (6546,0), 2 CTAs running
GPGPU-Sim uArch: core:  2, cta: 2 initialized @(6547,0)
GPGPU-Sim uArch: Shader 12 finished CTA #1 (6547,0), 2 CTAs running
GPGPU-Sim uArch: core: 12, cta: 1 initialized @(6548,0)
GPGPU-Sim uArch: Shader 11 finished CTA #1 (6551,0), 2 CTAs running
GPGPU-Sim uArch: core: 11, cta: 1 initialized @(6552,0)
GPGPU-Sim uArch: Shader 8 finished CTA #1 (6556,0), 2 CTAs running
GPGPU-Sim uArch: core:  8, cta: 1 initialized @(6557,0)
GPGPU-Sim uArch: Shader 13 finished CTA #2 (6566,0), 2 CTAs running
GPGPU-Sim uArch: core: 13, cta: 2 initialized @(6567,0)
GPGPU-Sim PTX: 2500000 instructions simulated : ctaid=(30,1,0) tid=(1,3,0)
GPGPU-Sim uArch: Shader 10 finished CTA #2 (6656,0), 2 CTAs running
GPGPU-Sim uArch: core: 10, cta: 2 initialized @(6657,0)
GPGPU-Sim uArch: Shader 11 finished CTA #2 (6684,0), 2 CTAs running
GPGPU-Sim uArch: core: 11, cta: 2 initialized @(6685,0)
GPGPU-Sim uArch: Shader 6 finished CTA #2 (6689,0), 2 CTAs running
GPGPU-Sim uArch: Shader 9 finished CTA #2 (6689,0), 2 CTAs running
GPGPU-Sim uArch: core:  6, cta: 2 initialized @(6690,0)
GPGPU-Sim uArch: core:  9, cta: 2 initialized @(6690,0)
GPGPU-Sim uArch: Shader 0 finished CTA #2 (6690,0), 2 CTAs running
GPGPU-Sim uArch: core:  0, cta: 2 initialized @(6691,0)
GPGPU-Sim PTX: 2600000 instructions simulated : ctaid=(20,1,0) tid=(1,15,0)
GPGPU-Sim uArch: Shader 12 finished CTA #2 (6710,0), 2 CTAs running
GPGPU-Sim uArch: core: 12, cta: 2 initialized @(6711,0)
GPGPU-Sim uArch: Shader 4 finished CTA #2 (6740,0), 2 CTAs running
GPGPU-Sim uArch: core:  4, cta: 2 initialized @(6741,0)
GPGPU-Sim uArch: Shader 14 finished CTA #2 (6743,0), 2 CTAs running
GPGPU-Sim uArch: core: 14, cta: 2 initialized @(6744,0)
GPGPU-Sim uArch: Shader 7 finished CTA #2 (6749,0), 2 CTAs running
GPGPU-Sim uArch: core:  7, cta: 2 initialized @(6750,0)
GPGPU-Sim uArch: Shader 5 finished CTA #2 (6761,0), 2 CTAs running
GPGPU-Sim uArch: core:  5, cta: 2 initialized @(6762,0)
GPGPU-Sim uArch: Shader 3 finished CTA #2 (6767,0), 2 CTAs running
GPGPU-Sim uArch: core:  3, cta: 2 initialized @(6768,0)
GPGPU-Sim uArch: Shader 8 finished CTA #2 (6774,0), 2 CTAs running
GPGPU-Sim uArch: core:  8, cta: 2 initialized @(6775,0)
GPGPU-Sim PTX: 2700000 instructions simulated : ctaid=(37,1,0) tid=(1,3,0)
GPGPU-Sim PTX: 2800000 instructions simulated : ctaid=(3,2,0) tid=(13,1,0)
GPGPU-Sim PTX: 2900000 instructions simulated : ctaid=(7,1,0) tid=(9,1,0)
GPGPU-Sim PTX: 3000000 instructions simulated : ctaid=(9,1,0) tid=(14,13,0)
GPGPU-Sim PTX: 3100000 instructions simulated : ctaid=(27,1,0) tid=(5,3,0)
GPGPU-Sim PTX: 3200000 instructions simulated : ctaid=(19,1,0) tid=(13,1,0)
GPGPU-Sim PTX: 3300000 instructions simulated : ctaid=(21,1,0) tid=(10,7,0)
GPGPU-Sim PTX: 3400000 instructions simulated : ctaid=(12,1,0) tid=(15,1,0)
GPGPU-Sim PTX: 3500000 instructions simulated : ctaid=(20,1,0) tid=(15,5,0)
GPGPU-Sim PTX: 3600000 instructions simulated : ctaid=(18,1,0) tid=(3,15,0)
GPGPU-Sim PTX: 3700000 instructions simulated : ctaid=(22,1,0) tid=(7,5,0)
GPGPU-Sim uArch: Shader 13 finished CTA #0 (9438,0), 2 CTAs running
GPGPU-Sim uArch: core: 13, cta: 0 initialized @(9439,0)
GPGPU-Sim PTX: 3800000 instructions simulated : ctaid=(12,1,0) tid=(13,11,0)
GPGPU-Sim uArch: Shader 10 finished CTA #0 (9530,0), 2 CTAs running
GPGPU-Sim uArch: core: 10, cta: 0 initialized @(9531,0)
GPGPU-Sim PTX: 3900000 instructions simulated : ctaid=(31,1,0) tid=(4,6,0)
GPGPU-Sim uArch: Shader 4 finished CTA #0 (9638,0), 2 CTAs running
GPGPU-Sim uArch: core:  4, cta: 0 initialized @(9639,0)
GPGPU-Sim uArch: Shader 9 finished CTA #0 (9694,0), 2 CTAs running
GPGPU-Sim uArch: core:  9, cta: 0 initialized @(9695,0)
GPGPU-Sim PTX: 4000000 instructions simulated : ctaid=(26,1,0) tid=(7,2,0)
GPGPU-Sim uArch: Shader 8 finished CTA #0 (9837,0), 2 CTAs running
GPGPU-Sim uArch: core:  8, cta: 0 initialized @(9838,0)
GPGPU-Sim uArch: Shader 14 finished CTA #1 (9867,0), 2 CTAs running
GPGPU-Sim uArch: core: 14, cta: 1 initialized @(9868,0)
GPGPU-Sim PTX: 4100000 instructions simulated : ctaid=(39,1,0) tid=(5,10,0)
GPGPU-Sim uArch: Shader 1 finished CTA #0 (9904,0), 2 CTAs running
GPGPU-Sim uArch: core:  1, cta: 0 initialized @(9905,0)
GPGPU-Sim uArch: Shader 5 finished CTA #1 (9922,0), 2 CTAs running
GPGPU-Sim uArch: core:  5, cta: 1 initialized @(9923,0)
GPGPU-Sim uArch: Shader 12 finished CTA #0 (9958,0), 2 CTAs running
GPGPU-Sim uArch: core: 12, cta: 0 initialized @(9959,0)
GPGPU-Sim uArch: Shader 6 finished CTA #1 (9963,0), 2 CTAs running
GPGPU-Sim uArch: core:  6, cta: 1 initialized @(9964,0)
GPGPU-Sim uArch: Shader 7 finished CTA #0 (9973,0), 2 CTAs running
GPGPU-Sim uArch: core:  7, cta: 0 initialized @(9974,0)
GPGPU-Sim uArch: cycles simulated: 10000  inst.: 3711659 (ipc=371.2) sim_rate=412406 (inst/sec) elapsed = 0:0:00:09 / Fri Jan 30 16:58:11 2015
GPGPU-Sim PTX: 4200000 instructions simulated : ctaid=(35,1,0) tid=(7,8,0)
GPGPU-Sim uArch: Shader 0 finished CTA #1 (10074,0), 2 CTAs running
GPGPU-Sim uArch: core:  0, cta: 1 initialized @(10075,0)
GPGPU-Sim uArch: Shader 2 finished CTA #1 (10156,0), 2 CTAs running
GPGPU-Sim uArch: core:  2, cta: 1 initialized @(10157,0)
GPGPU-Sim uArch: Shader 3 finished CTA #1 (10163,0), 2 CTAs running
GPGPU-Sim uArch: core:  3, cta: 1 initialized @(10164,0)
GPGPU-Sim PTX: 4300000 instructions simulated : ctaid=(14,1,0) tid=(3,10,0)
GPGPU-Sim uArch: Shader 11 finished CTA #0 (10203,0), 2 CTAs running
GPGPU-Sim uArch: core: 11, cta: 0 initialized @(10204,0)
GPGPU-Sim PTX: 4400000 instructions simulated : ctaid=(23,1,0) tid=(7,8,0)
GPGPU-Sim PTX: 4500000 instructions simulated : ctaid=(14,2,0) tid=(1,9,0)
GPGPU-Sim uArch: Shader 13 finished CTA #1 (10504,0), 2 CTAs running
GPGPU-Sim uArch: core: 13, cta: 1 initialized @(10505,0)
GPGPU-Sim PTX: 4600000 instructions simulated : ctaid=(1,2,0) tid=(11,15,0)
GPGPU-Sim uArch: Shader 4 finished CTA #1 (10626,0), 2 CTAs running
GPGPU-Sim uArch: core:  4, cta: 1 initialized @(10627,0)
GPGPU-Sim uArch: Shader 10 finished CTA #1 (10710,0), 2 CTAs running
GPGPU-Sim uArch: core: 10, cta: 1 initialized @(10711,0)
GPGPU-Sim uArch: Shader 6 finished CTA #0 (10788,0), 2 CTAs running
GPGPU-Sim uArch: core:  6, cta: 0 initialized @(10789,0)
GPGPU-Sim PTX: 4700000 instructions simulated : ctaid=(6,2,0) tid=(9,15,0)
GPGPU-Sim uArch: Shader 8 finished CTA #1 (10859,0), 2 CTAs running
GPGPU-Sim uArch: core:  8, cta: 1 initialized @(10860,0)
GPGPU-Sim uArch: Shader 1 finished CTA #1 (10955,0), 2 CTAs running
GPGPU-Sim uArch: core:  1, cta: 1 initialized @(10956,0)
GPGPU-Sim PTX: 4800000 instructions simulated : ctaid=(42,1,0) tid=(7,4,0)
GPGPU-Sim uArch: Shader 11 finished CTA #1 (10997,0), 2 CTAs running
GPGPU-Sim uArch: core: 11, cta: 1 initialized @(10998,0)
GPGPU-Sim uArch: Shader 9 finished CTA #1 (11005,0), 2 CTAs running
GPGPU-Sim uArch: core:  9, cta: 1 initialized @(11006,0)
GPGPU-Sim uArch: Shader 5 finished CTA #0 (11083,0), 2 CTAs running
GPGPU-Sim uArch: core:  5, cta: 0 initialized @(11084,0)
GPGPU-Sim uArch: Shader 0 finished CTA #0 (11091,0), 2 CTAs running
GPGPU-Sim uArch: core:  0, cta: 0 initialized @(11092,0)
GPGPU-Sim uArch: Shader 12 finished CTA #1 (11105,0), 2 CTAs running
GPGPU-Sim uArch: core: 12, cta: 1 initialized @(11106,0)
GPGPU-Sim uArch: Shader 7 finished CTA #1 (11107,0), 2 CTAs running
GPGPU-Sim uArch: core:  7, cta: 1 initialized @(11108,0)
GPGPU-Sim uArch: Shader 14 finished CTA #0 (11121,0), 2 CTAs running
GPGPU-Sim uArch: core: 14, cta: 0 initialized @(11122,0)
GPGPU-Sim PTX: 4900000 instructions simulated : ctaid=(27,2,0) tid=(1,5,0)
GPGPU-Sim uArch: Shader 2 finished CTA #0 (11217,0), 2 CTAs running
GPGPU-Sim uArch: core:  2, cta: 0 initialized @(11218,0)
GPGPU-Sim uArch: Shader 3 finished CTA #0 (11227,0), 2 CTAs running
GPGPU-Sim uArch: core:  3, cta: 0 initialized @(11228,0)
GPGPU-Sim PTX: 5000000 instructions simulated : ctaid=(31,2,0) tid=(9,13,0)
GPGPU-Sim PTX: 5100000 instructions simulated : ctaid=(19,2,0) tid=(9,11,0)
GPGPU-Sim uArch: Shader 13 finished CTA #2 (11537,0), 2 CTAs running
GPGPU-Sim uArch: core: 13, cta: 2 initialized @(11538,0)
GPGPU-Sim PTX: 5200000 instructions simulated : ctaid=(7,2,0) tid=(13,1,0)
GPGPU-Sim uArch: Shader 14 finished CTA #2 (11855,0), 2 CTAs running
GPGPU-Sim uArch: core: 14, cta: 2 initialized @(11856,0)
GPGPU-Sim PTX: 5300000 instructions simulated : ctaid=(35,2,0) tid=(5,4,0)
GPGPU-Sim uArch: Shader 4 finished CTA #2 (11884,0), 2 CTAs running
GPGPU-Sim uArch: core:  4, cta: 2 initialized @(11885,0)
GPGPU-Sim uArch: Shader 10 finished CTA #2 (11961,0), 2 CTAs running
GPGPU-Sim uArch: core: 10, cta: 2 initialized @(11962,0)
GPGPU-Sim uArch: Shader 12 finished CTA #2 (12011,0), 2 CTAs running
GPGPU-Sim uArch: core: 12, cta: 2 initialized @(12012,0)
GPGPU-Sim PTX: 5400000 instructions simulated : ctaid=(11,2,0) tid=(8,2,0)
GPGPU-Sim uArch: Shader 2 finished CTA #2 (12048,0), 2 CTAs running
GPGPU-Sim uArch: Shader 9 finished CTA #2 (12048,0), 2 CTAs running
GPGPU-Sim uArch: core:  2, cta: 2 initialized @(12049,0)
GPGPU-Sim uArch: core:  9, cta: 2 initialized @(12049,0)
GPGPU-Sim uArch: Shader 5 finished CTA #2 (12088,0), 2 CTAs running
GPGPU-Sim uArch: core:  5, cta: 2 initialized @(12089,0)
GPGPU-Sim uArch: Shader 0 finished CTA #2 (12100,0), 2 CTAs running
GPGPU-Sim uArch: core:  0, cta: 2 initialized @(12101,0)
GPGPU-Sim uArch: Shader 3 finished CTA #2 (12152,0), 2 CTAs running
GPGPU-Sim uArch: core:  3, cta: 2 initialized @(12153,0)
GPGPU-Sim uArch: Shader 8 finished CTA #2 (12157,0), 2 CTAs running
GPGPU-Sim uArch: core:  8, cta: 2 initialized @(12158,0)
GPGPU-Sim uArch: Shader 1 finished CTA #2 (12159,0), 2 CTAs running
GPGPU-Sim uArch: core:  1, cta: 2 initialized @(12160,0)
GPGPU-Sim uArch: Shader 6 finished CTA #2 (12171,0), 2 CTAs running
GPGPU-Sim uArch: core:  6, cta: 2 initialized @(12172,0)
GPGPU-Sim PTX: 5500000 instructions simulated : ctaid=(17,2,0) tid=(4,10,0)
GPGPU-Sim PTX: 5600000 instructions simulated : ctaid=(15,2,0) tid=(10,2,0)
GPGPU-Sim uArch: Shader 7 finished CTA #2 (12361,0), 2 CTAs running
GPGPU-Sim uArch: core:  7, cta: 2 initialized @(12362,0)
GPGPU-Sim uArch: Shader 11 finished CTA #2 (12427,0), 2 CTAs running
GPGPU-Sim uArch: core: 11, cta: 2 initialized @(12428,0)
GPGPU-Sim PTX: 5700000 instructions simulated : ctaid=(17,2,0) tid=(7,8,0)
GPGPU-Sim PTX: 5800000 instructions simulated : ctaid=(5,2,0) tid=(1,14,0)
GPGPU-Sim uArch: Shader 13 finished CTA #0 (12698,0), 2 CTAs running
GPGPU-Sim uArch: core: 13, cta: 0 initialized @(12699,0)
GPGPU-Sim PTX: 5900000 instructions simulated : ctaid=(31,2,0) tid=(3,9,0)
GPGPU-Sim PTX: 6000000 instructions simulated : ctaid=(27,2,0) tid=(7,8,0)
GPGPU-Sim PTX: 6100000 instructions simulated : ctaid=(33,2,0) tid=(5,7,0)
GPGPU-Sim PTX: 6200000 instructions simulated : ctaid=(15,2,0) tid=(9,3,0)
GPGPU-Sim uArch: Shader 4 finished CTA #0 (13288,0), 2 CTAs running
GPGPU-Sim uArch: core:  4, cta: 0 initialized @(13289,0)
GPGPU-Sim uArch: Shader 10 finished CTA #0 (13445,0), 2 CTAs running
GPGPU-Sim uArch: core: 10, cta: 0 initialized @(13446,0)
GPGPU-Sim uArch: Shader 8 finished CTA #0 (13464,0), 2 CTAs running
GPGPU-Sim uArch: core:  8, cta: 0 initialized @(13465,0)
GPGPU-Sim PTX: 6300000 instructions simulated : ctaid=(26,2,0) tid=(13,14,0)
GPGPU-Sim uArch: Shader 12 finished CTA #0 (13513,0), 2 CTAs running
GPGPU-Sim uArch: core: 12, cta: 0 initialized @(13514,0)
GPGPU-Sim uArch: Shader 1 finished CTA #0 (13604,0), 2 CTAs running
GPGPU-Sim uArch: core:  1, cta: 0 initialized @(13605,0)
GPGPU-Sim uArch: Shader 9 finished CTA #0 (13620,0), 2 CTAs running
GPGPU-Sim uArch: core:  9, cta: 0 initialized @(13621,0)
GPGPU-Sim uArch: Shader 6 finished CTA #1 (13634,0), 2 CTAs running
GPGPU-Sim uArch: core:  6, cta: 1 initialized @(13635,0)
GPGPU-Sim uArch: Shader 5 finished CTA #1 (13652,0), 2 CTAs running
GPGPU-Sim uArch: core:  5, cta: 1 initialized @(13653,0)
GPGPU-Sim PTX: 6400000 instructions simulated : ctaid=(11,3,0) tid=(3,3,0)
GPGPU-Sim uArch: Shader 7 finished CTA #0 (13668,0), 2 CTAs running
GPGPU-Sim uArch: core:  7, cta: 0 initialized @(13669,0)
GPGPU-Sim uArch: Shader 0 finished CTA #1 (13687,0), 2 CTAs running
GPGPU-Sim uArch: core:  0, cta: 1 initialized @(13688,0)
GPGPU-Sim uArch: Shader 3 finished CTA #1 (13772,0), 2 CTAs running
GPGPU-Sim uArch: core:  3, cta: 1 initialized @(13773,0)
GPGPU-Sim PTX: 6500000 instructions simulated : ctaid=(19,2,0) tid=(5,13,0)
GPGPU-Sim uArch: Shader 14 finished CTA #1 (13854,0), 2 CTAs running
GPGPU-Sim uArch: core: 14, cta: 1 initialized @(13855,0)
GPGPU-Sim uArch: Shader 11 finished CTA #0 (13925,0), 2 CTAs running
GPGPU-Sim uArch: core: 11, cta: 0 initialized @(13926,0)
GPGPU-Sim PTX: 6600000 instructions simulated : ctaid=(9,3,0) tid=(13,6,0)
GPGPU-Sim uArch: Shader 2 finished CTA #1 (13953,0), 2 CTAs running
GPGPU-Sim uArch: core:  2, cta: 1 initialized @(13954,0)
GPGPU-Sim PTX: 6700000 instructions simulated : ctaid=(38,2,0) tid=(5,6,0)
GPGPU-Sim PTX: 6800000 instructions simulated : ctaid=(31,2,0) tid=(11,13,0)
GPGPU-Sim uArch: Shader 4 finished CTA #1 (14336,0), 2 CTAs running
GPGPU-Sim uArch: core:  4, cta: 1 initialized @(14337,0)
GPGPU-Sim PTX: 6900000 instructions simulated : ctaid=(21,3,0) tid=(6,9,0)
GPGPU-Sim uArch: Shader 13 finished CTA #1 (14444,0), 2 CTAs running
GPGPU-Sim uArch: core: 13, cta: 1 initialized @(14445,0)
GPGPU-Sim PTX: 7000000 instructions simulated : ctaid=(37,2,0) tid=(3,4,0)
GPGPU-Sim PTX: 7100000 instructions simulated : ctaid=(37,2,0) tid=(13,12,0)
GPGPU-Sim uArch: Shader 12 finished CTA #1 (14758,0), 2 CTAs running
GPGPU-Sim uArch: core: 12, cta: 1 initialized @(14759,0)
GPGPU-Sim uArch: Shader 0 finished CTA #0 (14819,0), 2 CTAs running
GPGPU-Sim uArch: core:  0, cta: 0 initialized @(14820,0)
GPGPU-Sim uArch: Shader 3 finished CTA #0 (14824,0), 2 CTAs running
GPGPU-Sim uArch: core:  3, cta: 0 initialized @(14825,0)
GPGPU-Sim uArch: Shader 7 finished CTA #1 (14825,0), 2 CTAs running
GPGPU-Sim uArch: core:  7, cta: 1 initialized @(14826,0)
GPGPU-Sim uArch: Shader 5 finished CTA #0 (14849,0), 2 CTAs running
GPGPU-Sim uArch: core:  5, cta: 0 initialized @(14850,0)
GPGPU-Sim PTX: 7200000 instructions simulated : ctaid=(24,3,0) tid=(4,13,0)
GPGPU-Sim uArch: Shader 14 finished CTA #0 (14907,0), 2 CTAs running
GPGPU-Sim uArch: core: 14, cta: 0 initialized @(14908,0)
GPGPU-Sim uArch: Shader 8 finished CTA #1 (14908,0), 2 CTAs running
GPGPU-Sim uArch: core:  8, cta: 1 initialized @(14909,0)
GPGPU-Sim uArch: Shader 9 finished CTA #1 (14984,0), 2 CTAs running
GPGPU-Sim uArch: core:  9, cta: 1 initialized @(14985,0)
GPGPU-Sim uArch: Shader 10 finished CTA #1 (15020,0), 2 CTAs running
GPGPU-Sim uArch: core: 10, cta: 1 initialized @(15021,0)
GPGPU-Sim uArch: Shader 6 finished CTA #0 (15034,0), 2 CTAs running
GPGPU-Sim uArch: core:  6, cta: 0 initialized @(15035,0)
GPGPU-Sim uArch: Shader 11 finished CTA #1 (15036,0), 2 CTAs running
GPGPU-Sim uArch: core: 11, cta: 1 initialized @(15037,0)
GPGPU-Sim uArch: Shader 1 finished CTA #1 (15037,0), 2 CTAs running
GPGPU-Sim uArch: core:  1, cta: 1 initialized @(15038,0)
GPGPU-Sim PTX: 7300000 instructions simulated : ctaid=(0,3,0) tid=(1,15,0)
GPGPU-Sim uArch: Shader 2 finished CTA #0 (15054,0), 2 CTAs running
GPGPU-Sim uArch: core:  2, cta: 0 initialized @(15055,0)
GPGPU-Sim PTX: 7400000 instructions simulated : ctaid=(22,3,0) tid=(11,13,0)
GPGPU-Sim PTX: 7500000 instructions simulated : ctaid=(10,3,0) tid=(9,9,0)
GPGPU-Sim PTX: 7600000 instructions simulated : ctaid=(12,3,0) tid=(3,4,0)
GPGPU-Sim PTX: 7700000 instructions simulated : ctaid=(6,3,0) tid=(7,5,0)
GPGPU-Sim uArch: Shader 4 finished CTA #2 (15835,0), 2 CTAs running
GPGPU-Sim uArch: core:  4, cta: 2 initialized @(15836,0)
GPGPU-Sim uArch: Shader 13 finished CTA #2 (15855,0), 2 CTAs running
GPGPU-Sim uArch: core: 13, cta: 2 initialized @(15856,0)
GPGPU-Sim PTX: 7800000 instructions simulated : ctaid=(26,3,0) tid=(15,9,0)
GPGPU-Sim uArch: Shader 8 finished CTA #2 (16000,0), 2 CTAs running
GPGPU-Sim uArch: core:  8, cta: 2 initialized @(16001,0)
GPGPU-Sim PTX: 7900000 instructions simulated : ctaid=(7,3,0) tid=(11,2,0)
GPGPU-Sim uArch: Shader 3 finished CTA #2 (16075,0), 2 CTAs running
GPGPU-Sim uArch: core:  3, cta: 2 initialized @(16076,0)
GPGPU-Sim uArch: Shader 9 finished CTA #2 (16159,0), 2 CTAs running
GPGPU-Sim uArch: core:  9, cta: 2 initialized @(16160,0)
GPGPU-Sim uArch: Shader 1 finished CTA #2 (16174,0), 2 CTAs running
GPGPU-Sim uArch: core:  1, cta: 2 initialized @(16175,0)
GPGPU-Sim uArch: Shader 6 finished CTA #2 (16182,0), 2 CTAs running
GPGPU-Sim uArch: core:  6, cta: 2 initialized @(16183,0)
GPGPU-Sim PTX: 8000000 instructions simulated : ctaid=(6,3,0) tid=(9,7,0)
GPGPU-Sim uArch: Shader 10 finished CTA #2 (16254,0), 2 CTAs running
GPGPU-Sim uArch: core: 10, cta: 2 initialized @(16255,0)
GPGPU-Sim uArch: Shader 0 finished CTA #2 (16259,0), 2 CTAs running
GPGPU-Sim uArch: core:  0, cta: 2 initialized @(16260,0)
GPGPU-Sim uArch: Shader 14 finished CTA #2 (16278,0), 2 CTAs running
GPGPU-Sim uArch: core: 14, cta: 2 initialized @(16279,0)
GPGPU-Sim uArch: Shader 12 finished CTA #2 (16363,0), 2 CTAs running
GPGPU-Sim uArch: core: 12, cta: 2 initialized @(16364,0)
GPGPU-Sim uArch: Shader 7 finished CTA #2 (16396,0), 2 CTAs running
GPGPU-Sim uArch: core:  7, cta: 2 initialized @(16397,0)
GPGPU-Sim PTX: 8100000 instructions simulated : ctaid=(19,3,0) tid=(14,11,0)
GPGPU-Sim uArch: Shader 5 finished CTA #2 (16475,0), 2 CTAs running
GPGPU-Sim uArch: core:  5, cta: 2 initialized @(16476,0)
GPGPU-Sim PTX: 8200000 instructions simulated : ctaid=(9,3,0) tid=(7,10,0)
GPGPU-Sim uArch: Shader 11 finished CTA #2 (16602,0), 2 CTAs running
GPGPU-Sim uArch: core: 11, cta: 2 initialized @(16603,0)
GPGPU-Sim uArch: Shader 13 finished CTA #0 (16630,0), 2 CTAs running
GPGPU-Sim uArch: core: 13, cta: 0 initialized @(16631,0)
GPGPU-Sim PTX: 8300000 instructions simulated : ctaid=(19,3,0) tid=(11,6,0)
GPGPU-Sim uArch: Shader 2 finished CTA #2 (16729,0), 2 CTAs running
GPGPU-Sim uArch: core:  2, cta: 2 initialized @(16730,0)
GPGPU-Sim PTX: 8400000 instructions simulated : ctaid=(35,3,0) tid=(3,0,0)
GPGPU-Sim uArch: Shader 4 finished CTA #0 (17012,0), 2 CTAs running
GPGPU-Sim uArch: core:  4, cta: 0 initialized @(17013,0)
GPGPU-Sim PTX: 8500000 instructions simulated : ctaid=(23,3,0) tid=(12,3,0)
GPGPU-Sim PTX: 8600000 instructions simulated : ctaid=(7,4,0) tid=(11,9,0)
GPGPU-Sim PTX: 8700000 instructions simulated : ctaid=(13,3,0) tid=(3,8,0)
GPGPU-Sim uArch: Shader 8 finished CTA #0 (17484,0), 2 CTAs running
GPGPU-Sim uArch: core:  8, cta: 0 initialized @(17485,0)
GPGPU-Sim uArch: Shader 1 finished CTA #0 (17496,0), 2 CTAs running
GPGPU-Sim uArch: core:  1, cta: 0 initialized @(17497,0)
GPGPU-Sim uArch: Shader 12 finished CTA #0 (17514,0), 2 CTAs running
GPGPU-Sim uArch: core: 12, cta: 0 initialized @(17515,0)
GPGPU-Sim uArch: Shader 3 finished CTA #1 (17570,0), 2 CTAs running
GPGPU-Sim uArch: core:  3, cta: 1 initialized @(17571,0)
GPGPU-Sim uArch: Shader 7 finished CTA #0 (17586,0), 2 CTAs running
GPGPU-Sim uArch: core:  7, cta: 0 initialized @(17587,0)
GPGPU-Sim PTX: 8800000 instructions simulated : ctaid=(8,3,0) tid=(11,7,0)
GPGPU-Sim uArch: Shader 9 finished CTA #0 (17614,0), 2 CTAs running
GPGPU-Sim uArch: core:  9, cta: 0 initialized @(17615,0)
GPGPU-Sim uArch: Shader 6 finished CTA #1 (17621,0), 2 CTAs running
GPGPU-Sim uArch: core:  6, cta: 1 initialized @(17622,0)
GPGPU-Sim uArch: Shader 0 finished CTA #1 (17628,0), 2 CTAs running
GPGPU-Sim uArch: core:  0, cta: 1 initialized @(17629,0)
GPGPU-Sim uArch: Shader 11 finished CTA #0 (17629,0), 2 CTAs running
GPGPU-Sim uArch: core: 11, cta: 0 initialized @(17630,0)
GPGPU-Sim uArch: Shader 14 finished CTA #1 (17663,0), 2 CTAs running
GPGPU-Sim uArch: core: 14, cta: 1 initialized @(17664,0)
GPGPU-Sim uArch: Shader 5 finished CTA #1 (17712,0), 2 CTAs running
GPGPU-Sim uArch: core:  5, cta: 1 initialized @(17713,0)
GPGPU-Sim PTX: 8900000 instructions simulated : ctaid=(19,4,0) tid=(1,15,0)
GPGPU-Sim uArch: Shader 2 finished CTA #1 (17838,0), 2 CTAs running
GPGPU-Sim uArch: core:  2, cta: 1 initialized @(17839,0)
GPGPU-Sim PTX: 9000000 instructions simulated : ctaid=(29,3,0) tid=(5,11,0)
GPGPU-Sim uArch: Shader 10 finished CTA #0 (17924,0), 2 CTAs running
GPGPU-Sim uArch: core: 10, cta: 0 initialized @(17925,0)
GPGPU-Sim PTX: 9100000 instructions simulated : ctaid=(1,4,0) tid=(6,0,0)
GPGPU-Sim PTX: 9200000 instructions simulated : ctaid=(31,3,0) tid=(2,0,0)
GPGPU-Sim PTX: 9300000 instructions simulated : ctaid=(5,4,0) tid=(13,0,0)
GPGPU-Sim uArch: Shader 4 finished CTA #1 (18526,0), 2 CTAs running
GPGPU-Sim uArch: core:  4, cta: 1 initialized @(18527,0)
GPGPU-Sim PTX: 9400000 instructions simulated : ctaid=(7,4,0) tid=(11,12,0)
GPGPU-Sim uArch: Shader 3 finished CTA #0 (18642,0), 2 CTAs running
GPGPU-Sim uArch: core:  3, cta: 0 initialized @(18643,0)
GPGPU-Sim uArch: Shader 13 finished CTA #1 (18664,0), 2 CTAs running
GPGPU-Sim uArch: core: 13, cta: 1 initialized @(18665,0)
GPGPU-Sim uArch: Shader 0 finished CTA #0 (18679,0), 2 CTAs running
GPGPU-Sim uArch: core:  0, cta: 0 initialized @(18680,0)
GPGPU-Sim uArch: Shader 8 finished CTA #1 (18799,0), 2 CTAs running
GPGPU-Sim uArch: core:  8, cta: 1 initialized @(18800,0)
GPGPU-Sim PTX: 9500000 instructions simulated : ctaid=(5,4,0) tid=(1,13,0)
GPGPU-Sim uArch: Shader 5 finished CTA #0 (18872,0), 2 CTAs running
GPGPU-Sim uArch: core:  5, cta: 0 initialized @(18873,0)
GPGPU-Sim uArch: Shader 9 finished CTA #1 (18893,0), 2 CTAs running
GPGPU-Sim uArch: core:  9, cta: 1 initialized @(18894,0)
GPGPU-Sim PTX: 9600000 instructions simulated : ctaid=(7,4,0) tid=(5,8,0)
GPGPU-Sim uArch: Shader 10 finished CTA #1 (18971,0), 2 CTAs running
GPGPU-Sim uArch: core: 10, cta: 1 initialized @(18972,0)
GPGPU-Sim uArch: Shader 7 finished CTA #1 (19026,0), 2 CTAs running
GPGPU-Sim uArch: core:  7, cta: 1 initialized @(19027,0)
GPGPU-Sim uArch: Shader 1 finished CTA #1 (19034,0), 2 CTAs running
GPGPU-Sim uArch: core:  1, cta: 1 initialized @(19035,0)
GPGPU-Sim uArch: Shader 6 finished CTA #0 (19083,0), 2 CTAs running
GPGPU-Sim uArch: core:  6, cta: 0 initialized @(19084,0)
GPGPU-Sim PTX: 9700000 instructions simulated : ctaid=(33,4,0) tid=(2,0,0)
GPGPU-Sim uArch: Shader 14 finished CTA #0 (19171,0), 2 CTAs running
GPGPU-Sim uArch: core: 14, cta: 0 initialized @(19172,0)
GPGPU-Sim uArch: Shader 4 finished CTA #2 (19272,0), 2 CTAs running
GPGPU-Sim uArch: core:  4, cta: 2 initialized @(19273,0)
GPGPU-Sim PTX: 9800000 instructions simulated : ctaid=(3,4,0) tid=(12,7,0)
GPGPU-Sim uArch: Shader 11 finished CTA #1 (19350,0), 2 CTAs running
GPGPU-Sim uArch: core: 11, cta: 1 initialized @(19351,0)
GPGPU-Sim uArch: Shader 12 finished CTA #1 (19361,0), 2 CTAs running
GPGPU-Sim uArch: core: 12, cta: 1 initialized @(19362,0)
GPGPU-Sim PTX: 9900000 instructions simulated : ctaid=(40,3,0) tid=(5,13,0)
GPGPU-Sim uArch: Shader 2 finished CTA #0 (19644,0), 2 CTAs running
GPGPU-Sim uArch: core:  2, cta: 0 initialized @(19645,0)
GPGPU-Sim PTX: 10000000 instructions simulated : ctaid=(11,4,0) tid=(11,10,0)
GPGPU-Sim uArch: Shader 13 finished CTA #2 (19755,0), 2 CTAs running
GPGPU-Sim uArch: core: 13, cta: 2 initialized @(19756,0)
GPGPU-Sim PTX: 10100000 instructions simulated : ctaid=(19,4,0) tid=(12,3,0)
GPGPU-Sim PTX: 10200000 instructions simulated : ctaid=(4,4,0) tid=(3,6,0)
GPGPU-Sim uArch: cycles simulated: 20000  inst.: 9080718 (ipc=454.0) sim_rate=432415 (inst/sec) elapsed = 0:0:00:21 / Fri Jan 30 16:58:23 2015
GPGPU-Sim uArch: Shader 6 finished CTA #2 (20022,0), 2 CTAs running
GPGPU-Sim uArch: core:  6, cta: 2 initialized @(20023,0)
GPGPU-Sim PTX: 10300000 instructions simulated : ctaid=(13,4,0) tid=(13,7,0)
GPGPU-Sim uArch: Shader 1 finished CTA #2 (20133,0), 2 CTAs running
GPGPU-Sim uArch: core:  1, cta: 2 initialized @(20134,0)
GPGPU-Sim uArch: Shader 8 finished CTA #2 (20249,0), 2 CTAs running
GPGPU-Sim uArch: core:  8, cta: 2 initialized @(20250,0)
GPGPU-Sim uArch: Shader 5 finished CTA #2 (20280,0), 2 CTAs running
GPGPU-Sim uArch: core:  5, cta: 2 initialized @(20281,0)
GPGPU-Sim PTX: 10400000 instructions simulated : ctaid=(42,4,0) tid=(1,0,0)
GPGPU-Sim uArch: Shader 9 finished CTA #2 (20356,0), 2 CTAs running
GPGPU-Sim uArch: core:  9, cta: 2 initialized @(20357,0)
GPGPU-Sim PTX: 10500000 instructions simulated : ctaid=(22,4,0) tid=(13,11,0)
GPGPU-Sim uArch: Shader 3 finished CTA #2 (20440,0), 2 CTAs running
GPGPU-Sim uArch: core:  3, cta: 2 initialized @(20441,0)
GPGPU-Sim uArch: Shader 14 finished CTA #2 (20471,0), 2 CTAs running
GPGPU-Sim uArch: core: 14, cta: 2 initialized @(20472,0)
GPGPU-Sim uArch: Shader 7 finished CTA #2 (20479,0), 2 CTAs running
GPGPU-Sim uArch: core:  7, cta: 2 initialized @(20480,0)
GPGPU-Sim uArch: Shader 0 finished CTA #2 (20483,0), 2 CTAs running
GPGPU-Sim uArch: core:  0, cta: 2 initialized @(20484,0)
GPGPU-Sim uArch: Shader 12 finished CTA #2 (20501,0), 2 CTAs running
GPGPU-Sim uArch: core: 12, cta: 2 initialized @(20502,0)
GPGPU-Sim uArch: Shader 10 finished CTA #2 (20531,0), 2 CTAs running
GPGPU-Sim uArch: core: 10, cta: 2 initialized @(20532,0)
GPGPU-Sim PTX: 10600000 instructions simulated : ctaid=(10,4,0) tid=(15,6,0)
GPGPU-Sim PTX: 10700000 instructions simulated : ctaid=(13,4,0) tid=(11,8,0)
GPGPU-Sim uArch: Shader 11 finished CTA #2 (20748,0), 2 CTAs running
GPGPU-Sim uArch: core: 11, cta: 2 initialized @(20749,0)
GPGPU-Sim uArch: Shader 2 finished CTA #2 (20848,0), 2 CTAs running
GPGPU-Sim uArch: core:  2, cta: 2 initialized @(20849,0)
GPGPU-Sim PTX: 10800000 instructions simulated : ctaid=(22,4,0) tid=(7,2,0)
GPGPU-Sim uArch: Shader 13 finished CTA #0 (20897,0), 2 CTAs running
GPGPU-Sim uArch: core: 13, cta: 0 initialized @(20898,0)
GPGPU-Sim PTX: 10900000 instructions simulated : ctaid=(33,4,0) tid=(7,4,0)
GPGPU-Sim uArch: Shader 4 finished CTA #0 (21123,0), 2 CTAs running
GPGPU-Sim uArch: core:  4, cta: 0 initialized @(21124,0)
GPGPU-Sim PTX: 11000000 instructions simulated : ctaid=(36,4,0) tid=(15,12,0)
GPGPU-Sim uArch: Shader 5 finished CTA #1 (21325,0), 2 CTAs running
GPGPU-Sim uArch: core:  5, cta: 1 initialized @(21326,0)
GPGPU-Sim PTX: 11100000 instructions simulated : ctaid=(30,4,0) tid=(12,1,0)
GPGPU-Sim uArch: Shader 0 finished CTA #1 (21485,0), 2 CTAs running
GPGPU-Sim uArch: core:  0, cta: 1 initialized @(21486,0)
GPGPU-Sim uArch: Shader 6 finished CTA #1 (21487,0), 2 CTAs running
GPGPU-Sim uArch: core:  6, cta: 1 initialized @(21488,0)
GPGPU-Sim uArch: Shader 8 finished CTA #0 (21524,0), 2 CTAs running
GPGPU-Sim uArch: core:  8, cta: 0 initialized @(21525,0)
GPGPU-Sim PTX: 11200000 instructions simulated : ctaid=(25,4,0) tid=(5,4,0)
GPGPU-Sim uArch: Shader 1 finished CTA #0 (21581,0), 2 CTAs running
GPGPU-Sim uArch: core:  1, cta: 0 initialized @(21582,0)
GPGPU-Sim uArch: Shader 11 finished CTA #0 (21588,0), 2 CTAs running
GPGPU-Sim uArch: core: 11, cta: 0 initialized @(21589,0)
GPGPU-Sim uArch: Shader 9 finished CTA #0 (21684,0), 2 CTAs running
GPGPU-Sim uArch: core:  9, cta: 0 initialized @(21685,0)
GPGPU-Sim PTX: 11300000 instructions simulated : ctaid=(33,4,0) tid=(9,5,0)
GPGPU-Sim uArch: Shader 7 finished CTA #0 (21771,0), 2 CTAs running
GPGPU-Sim uArch: core:  7, cta: 0 initialized @(21772,0)
GPGPU-Sim uArch: Shader 3 finished CTA #1 (21797,0), 2 CTAs running
GPGPU-Sim uArch: core:  3, cta: 1 initialized @(21798,0)
GPGPU-Sim uArch: Shader 14 finished CTA #1 (21798,0), 2 CTAs running
GPGPU-Sim uArch: core: 14, cta: 1 initialized @(21799,0)
GPGPU-Sim uArch: Shader 10 finished CTA #0 (21865,0), 2 CTAs running
GPGPU-Sim uArch: core: 10, cta: 0 initialized @(21866,0)
GPGPU-Sim PTX: 11400000 instructions simulated : ctaid=(23,4,0) tid=(7,12,0)
GPGPU-Sim PTX: 11500000 instructions simulated : ctaid=(20,5,0) tid=(3,11,0)
GPGPU-Sim PTX: 11600000 instructions simulated : ctaid=(30,4,0) tid=(5,2,0)
GPGPU-Sim uArch: Shader 4 finished CTA #1 (22201,0), 2 CTAs running
GPGPU-Sim uArch: core:  4, cta: 1 initialized @(22202,0)
GPGPU-Sim uArch: Shader 12 finished CTA #0 (22218,0), 2 CTAs running
GPGPU-Sim uArch: core: 12, cta: 0 initialized @(22219,0)
GPGPU-Sim uArch: Shader 13 finished CTA #1 (22363,0), 2 CTAs running
GPGPU-Sim uArch: core: 13, cta: 1 initialized @(22364,0)
GPGPU-Sim PTX: 11700000 instructions simulated : ctaid=(6,5,0) tid=(10,11,0)
GPGPU-Sim uArch: Shader 2 finished CTA #1 (22434,0), 2 CTAs running
GPGPU-Sim uArch: core:  2, cta: 1 initialized @(22435,0)
GPGPU-Sim uArch: Shader 8 finished CTA #1 (22464,0), 2 CTAs running
GPGPU-Sim uArch: core:  8, cta: 1 initialized @(22465,0)
GPGPU-Sim PTX: 11800000 instructions simulated : ctaid=(4,5,0) tid=(8,9,0)
GPGPU-Sim uArch: Shader 6 finished CTA #0 (22633,0), 2 CTAs running
GPGPU-Sim uArch: core:  6, cta: 0 initialized @(22634,0)
GPGPU-Sim PTX: 11900000 instructions simulated : ctaid=(39,4,0) tid=(0,10,0)
GPGPU-Sim uArch: Shader 1 finished CTA #1 (22728,0), 2 CTAs running
GPGPU-Sim uArch: core:  1, cta: 1 initialized @(22729,0)
GPGPU-Sim uArch: Shader 7 finished CTA #1 (22838,0), 2 CTAs running
GPGPU-Sim uArch: core:  7, cta: 1 initialized @(22839,0)
GPGPU-Sim uArch: Shader 5 finished CTA #0 (22864,0), 2 CTAs running
GPGPU-Sim uArch: core:  5, cta: 0 initialized @(22865,0)
GPGPU-Sim PTX: 12000000 instructions simulated : ctaid=(19,5,0) tid=(5,5,0)
GPGPU-Sim uArch: Shader 9 finished CTA #1 (22954,0), 2 CTAs running
GPGPU-Sim uArch: core:  9, cta: 1 initialized @(22955,0)
GPGPU-Sim uArch: Shader 10 finished CTA #1 (22962,0), 2 CTAs running
GPGPU-Sim uArch: core: 10, cta: 1 initialized @(22963,0)
GPGPU-Sim PTX: 12100000 instructions simulated : ctaid=(26,4,0) tid=(10,3,0)
GPGPU-Sim uArch: Shader 11 finished CTA #1 (23136,0), 2 CTAs running
GPGPU-Sim uArch: core: 11, cta: 1 initialized @(23137,0)
GPGPU-Sim uArch: Shader 14 finished CTA #0 (23200,0), 2 CTAs running
GPGPU-Sim uArch: core: 14, cta: 0 initialized @(23201,0)
GPGPU-Sim PTX: 12200000 instructions simulated : ctaid=(6,5,0) tid=(10,15,0)
GPGPU-Sim uArch: Shader 0 finished CTA #0 (23353,0), 2 CTAs running
GPGPU-Sim uArch: core:  0, cta: 0 initialized @(23354,0)
GPGPU-Sim PTX: 12300000 instructions simulated : ctaid=(2,5,0) tid=(10,10,0)
GPGPU-Sim uArch: Shader 3 finished CTA #0 (23483,0), 2 CTAs running
GPGPU-Sim uArch: core:  3, cta: 0 initialized @(23484,0)
GPGPU-Sim uArch: Shader 12 finished CTA #1 (23519,0), 2 CTAs running
GPGPU-Sim uArch: core: 12, cta: 1 initialized @(23520,0)
GPGPU-Sim PTX: 12400000 instructions simulated : ctaid=(19,5,0) tid=(11,5,0)
GPGPU-Sim uArch: Shader 4 finished CTA #2 (23583,0), 2 CTAs running
GPGPU-Sim uArch: core:  4, cta: 2 initialized @(23584,0)
GPGPU-Sim uArch: Shader 13 finished CTA #2 (23610,0), 2 CTAs running
GPGPU-Sim uArch: core: 13, cta: 2 initialized @(23611,0)
GPGPU-Sim uArch: Shader 2 finished CTA #0 (23620,0), 2 CTAs running
GPGPU-Sim uArch: core:  2, cta: 0 initialized @(23621,0)
GPGPU-Sim PTX: 12500000 instructions simulated : ctaid=(41,5,0) tid=(1,7,0)
GPGPU-Sim PTX: 12600000 instructions simulated : ctaid=(19,5,0) tid=(12,3,0)
GPGPU-Sim PTX: 12700000 instructions simulated : ctaid=(25,5,0) tid=(13,2,0)
GPGPU-Sim uArch: Shader 7 finished CTA #2 (24024,0), 2 CTAs running
GPGPU-Sim uArch: core:  7, cta: 2 initialized @(24025,0)
GPGPU-Sim uArch: Shader 6 finished CTA #2 (24083,0), 2 CTAs running
GPGPU-Sim uArch: core:  6, cta: 2 initialized @(24084,0)
GPGPU-Sim PTX: 12800000 instructions simulated : ctaid=(17,5,0) tid=(14,13,0)
GPGPU-Sim uArch: Shader 14 finished CTA #2 (24176,0), 2 CTAs running
GPGPU-Sim uArch: core: 14, cta: 2 initialized @(24177,0)
GPGPU-Sim uArch: Shader 8 finished CTA #2 (24196,0), 2 CTAs running
GPGPU-Sim uArch: core:  8, cta: 2 initialized @(24197,0)
GPGPU-Sim uArch: Shader 1 finished CTA #2 (24256,0), 2 CTAs running
GPGPU-Sim uArch: core:  1, cta: 2 initialized @(24257,0)
GPGPU-Sim PTX: 12900000 instructions simulated : ctaid=(23,5,0) tid=(11,12,0)
GPGPU-Sim uArch: Shader 5 finished CTA #2 (24316,0), 2 CTAs running
GPGPU-Sim uArch: core:  5, cta: 2 initialized @(24317,0)
GPGPU-Sim uArch: Shader 10 finished CTA #2 (24330,0), 2 CTAs running
GPGPU-Sim uArch: core: 10, cta: 2 initialized @(24331,0)
GPGPU-Sim uArch: Shader 0 finished CTA #2 (24380,0), 2 CTAs running
GPGPU-Sim uArch: core:  0, cta: 2 initialized @(24381,0)
GPGPU-Sim uArch: Shader 9 finished CTA #2 (24399,0), 2 CTAs running
GPGPU-Sim uArch: core:  9, cta: 2 initialized @(24400,0)
GPGPU-Sim uArch: Shader 11 finished CTA #2 (24438,0), 2 CTAs running
GPGPU-Sim uArch: core: 11, cta: 2 initialized @(24439,0)
GPGPU-Sim PTX: 13000000 instructions simulated : ctaid=(18,5,0) tid=(1,7,0)
GPGPU-Sim uArch: Shader 3 finished CTA #2 (24474,0), 2 CTAs running
GPGPU-Sim uArch: core:  3, cta: 2 initialized @(24475,0)
GPGPU-Sim uArch: Shader 2 finished CTA #2 (24593,0), 2 CTAs running
GPGPU-Sim uArch: core:  2, cta: 2 initialized @(24594,0)
GPGPU-Sim PTX: 13100000 instructions simulated : ctaid=(9,6,0) tid=(7,13,0)
GPGPU-Sim PTX: 13200000 instructions simulated : ctaid=(13,5,0) tid=(5,15,0)
GPGPU-Sim uArch: Shader 13 finished CTA #0 (24810,0), 2 CTAs running
GPGPU-Sim uArch: core: 13, cta: 0 initialized @(24811,0)
GPGPU-Sim uArch: Shader 4 finished CTA #0 (24928,0), 2 CTAs running
GPGPU-Sim uArch: core:  4, cta: 0 initialized @(24929,0)
GPGPU-Sim PTX: 13300000 instructions simulated : ctaid=(19,5,0) tid=(7,6,0)
GPGPU-Sim PTX: 13400000 instructions simulated : ctaid=(42,5,0) tid=(9,2,0)
GPGPU-Sim uArch: Shader 5 finished CTA #1 (25154,0), 2 CTAs running
GPGPU-Sim uArch: core:  5, cta: 1 initialized @(25155,0)
GPGPU-Sim uArch: Shader 6 finished CTA #1 (25224,0), 2 CTAs running
GPGPU-Sim uArch: core:  6, cta: 1 initialized @(25225,0)
GPGPU-Sim uArch: Shader 12 finished CTA #2 (25294,0), 2 CTAs running
GPGPU-Sim uArch: core: 12, cta: 2 initialized @(25295,0)
GPGPU-Sim uArch: Shader 7 finished CTA #0 (25295,0), 2 CTAs running
GPGPU-Sim uArch: core:  7, cta: 0 initialized @(25296,0)
GPGPU-Sim PTX: 13500000 instructions simulated : ctaid=(21,5,0) tid=(9,7,0)
GPGPU-Sim uArch: Shader 8 finished CTA #0 (25342,0), 2 CTAs running
GPGPU-Sim uArch: core:  8, cta: 0 initialized @(25343,0)
GPGPU-Sim PTX: 13600000 instructions simulated : ctaid=(31,5,0) tid=(6,10,0)
GPGPU-Sim uArch: Shader 10 finished CTA #0 (25540,0), 2 CTAs running
GPGPU-Sim uArch: core: 10, cta: 0 initialized @(25541,0)
GPGPU-Sim uArch: Shader 1 finished CTA #0 (25577,0), 2 CTAs running
GPGPU-Sim uArch: core:  1, cta: 0 initialized @(25578,0)
GPGPU-Sim PTX: 13700000 instructions simulated : ctaid=(37,5,0) tid=(13,7,0)
GPGPU-Sim uArch: Shader 11 finished CTA #0 (25684,0), 2 CTAs running
GPGPU-Sim uArch: core: 11, cta: 0 initialized @(25685,0)
GPGPU-Sim uArch: Shader 9 finished CTA #0 (25805,0), 2 CTAs running
GPGPU-Sim uArch: core:  9, cta: 0 initialized @(25806,0)
GPGPU-Sim PTX: 13800000 instructions simulated : ctaid=(34,5,0) tid=(7,11,0)
GPGPU-Sim uArch: Shader 4 finished CTA #1 (25930,0), 2 CTAs running
GPGPU-Sim uArch: core:  4, cta: 1 initialized @(25931,0)
GPGPU-Sim PTX: 13900000 instructions simulated : ctaid=(19,6,0) tid=(13,6,0)
GPGPU-Sim uArch: Shader 0 finished CTA #1 (26048,0), 2 CTAs running
GPGPU-Sim uArch: core:  0, cta: 1 initialized @(26049,0)
GPGPU-Sim uArch: Shader 3 finished CTA #1 (26074,0), 2 CTAs running
GPGPU-Sim uArch: core:  3, cta: 1 initialized @(26075,0)
GPGPU-Sim uArch: Shader 14 finished CTA #1 (26094,0), 2 CTAs running
GPGPU-Sim uArch: core: 14, cta: 1 initialized @(26095,0)
GPGPU-Sim PTX: 14000000 instructions simulated : ctaid=(4,6,0) tid=(3,9,0)
GPGPU-Sim uArch: Shader 2 finished CTA #1 (26199,0), 2 CTAs running
GPGPU-Sim uArch: core:  2, cta: 1 initialized @(26200,0)
GPGPU-Sim uArch: Shader 12 finished CTA #0 (26256,0), 2 CTAs running
GPGPU-Sim uArch: core: 12, cta: 0 initialized @(26257,0)
GPGPU-Sim uArch: Shader 13 finished CTA #1 (26270,0), 2 CTAs running
GPGPU-Sim uArch: core: 13, cta: 1 initialized @(26271,0)
GPGPU-Sim PTX: 14100000 instructions simulated : ctaid=(3,6,0) tid=(4,11,0)
GPGPU-Sim PTX: 14200000 instructions simulated : ctaid=(10,6,0) tid=(2,1,0)
GPGPU-Sim uArch: Shader 6 finished CTA #0 (26611,0), 2 CTAs running
GPGPU-Sim uArch: core:  6, cta: 0 initialized @(26612,0)
GPGPU-Sim PTX: 14300000 instructions simulated : ctaid=(39,5,0) tid=(5,2,0)
GPGPU-Sim uArch: Shader 7 finished CTA #1 (26734,0), 2 CTAs running
GPGPU-Sim uArch: core:  7, cta: 1 initialized @(26735,0)
GPGPU-Sim PTX: 14400000 instructions simulated : ctaid=(2,6,0) tid=(2,15,0)
GPGPU-Sim uArch: Shader 8 finished CTA #1 (26910,0), 2 CTAs running
GPGPU-Sim uArch: core:  8, cta: 1 initialized @(26911,0)
GPGPU-Sim PTX: 14500000 instructions simulated : ctaid=(37,5,0) tid=(6,11,0)
GPGPU-Sim uArch: Shader 10 finished CTA #1 (26980,0), 2 CTAs running
GPGPU-Sim uArch: core: 10, cta: 1 initialized @(26981,0)
GPGPU-Sim uArch: Shader 1 finished CTA #1 (27001,0), 2 CTAs running
GPGPU-Sim uArch: core:  1, cta: 1 initialized @(27002,0)
GPGPU-Sim uArch: Shader 9 finished CTA #1 (27090,0), 2 CTAs running
GPGPU-Sim uArch: core:  9, cta: 1 initialized @(27091,0)
GPGPU-Sim PTX: 14600000 instructions simulated : ctaid=(21,6,0) tid=(0,10,0)
GPGPU-Sim uArch: Shader 5 finished CTA #0 (27127,0), 2 CTAs running
GPGPU-Sim uArch: core:  5, cta: 0 initialized @(27128,0)
GPGPU-Sim uArch: Shader 2 finished CTA #0 (27162,0), 2 CTAs running
GPGPU-Sim uArch: core:  2, cta: 0 initialized @(27163,0)
GPGPU-Sim uArch: Shader 11 finished CTA #1 (27243,0), 2 CTAs running
GPGPU-Sim uArch: core: 11, cta: 1 initialized @(27244,0)
GPGPU-Sim uArch: Shader 4 finished CTA #2 (27256,0), 2 CTAs running
GPGPU-Sim uArch: core:  4, cta: 2 initialized @(27257,0)
GPGPU-Sim PTX: 14700000 instructions simulated : ctaid=(38,6,0) tid=(1,3,0)
GPGPU-Sim uArch: Shader 0 finished CTA #0 (27311,0), 2 CTAs running
GPGPU-Sim uArch: core:  0, cta: 0 initialized @(27312,0)
GPGPU-Sim uArch: Shader 3 finished CTA #0 (27332,0), 2 CTAs running
GPGPU-Sim uArch: core:  3, cta: 0 initialized @(27333,0)
GPGPU-Sim uArch: Shader 13 finished CTA #2 (27334,0), 2 CTAs running
GPGPU-Sim uArch: core: 13, cta: 2 initialized @(27335,0)
GPGPU-Sim uArch: Shader 14 finished CTA #0 (27406,0), 2 CTAs running
GPGPU-Sim uArch: core: 14, cta: 0 initialized @(27407,0)
GPGPU-Sim PTX: 14800000 instructions simulated : ctaid=(2,6,0) tid=(11,6,0)
GPGPU-Sim uArch: Shader 7 finished CTA #2 (27479,0), 2 CTAs running
GPGPU-Sim uArch: core:  7, cta: 2 initialized @(27480,0)
GPGPU-Sim PTX: 14900000 instructions simulated : ctaid=(2,6,0) tid=(5,6,0)
GPGPU-Sim PTX: 15000000 instructions simulated : ctaid=(5,6,0) tid=(7,8,0)
GPGPU-Sim uArch: Shader 12 finished CTA #1 (27785,0), 2 CTAs running
GPGPU-Sim uArch: core: 12, cta: 1 initialized @(27786,0)
GPGPU-Sim PTX: 15100000 instructions simulated : ctaid=(4,6,0) tid=(13,9,0)
GPGPU-Sim uArch: Shader 10 finished CTA #2 (28146,0), 2 CTAs running
GPGPU-Sim uArch: core: 10, cta: 2 initialized @(28147,0)
GPGPU-Sim PTX: 15200000 instructions simulated : ctaid=(19,6,0) tid=(2,11,0)
GPGPU-Sim uArch: Shader 8 finished CTA #2 (28192,0), 2 CTAs running
GPGPU-Sim uArch: core:  8, cta: 2 initialized @(28193,0)
GPGPU-Sim uArch: Shader 6 finished CTA #2 (28205,0), 2 CTAs running
GPGPU-Sim uArch: core:  6, cta: 2 initialized @(28206,0)
GPGPU-Sim uArch: Shader 1 finished CTA #2 (28211,0), 2 CTAs running
GPGPU-Sim uArch: core:  1, cta: 2 initialized @(28212,0)
GPGPU-Sim uArch: Shader 5 finished CTA #2 (28247,0), 2 CTAs running
GPGPU-Sim uArch: core:  5, cta: 2 initialized @(28248,0)
GPGPU-Sim PTX: 15300000 instructions simulated : ctaid=(25,6,0) tid=(1,9,0)
GPGPU-Sim PTX: 15400000 instructions simulated : ctaid=(37,6,0) tid=(5,6,0)
GPGPU-Sim uArch: Shader 14 finished CTA #2 (28547,0), 2 CTAs running
GPGPU-Sim uArch: core: 14, cta: 2 initialized @(28548,0)
GPGPU-Sim uArch: Shader 2 finished CTA #2 (28608,0), 2 CTAs running
GPGPU-Sim uArch: core:  2, cta: 2 initialized @(28609,0)
GPGPU-Sim uArch: Shader 11 finished CTA #2 (28613,0), 2 CTAs running
GPGPU-Sim uArch: core: 11, cta: 2 initialized @(28614,0)
GPGPU-Sim PTX: 15500000 instructions simulated : ctaid=(4,7,0) tid=(13,8,0)
GPGPU-Sim uArch: Shader 13 finished CTA #0 (28721,0), 2 CTAs running
GPGPU-Sim uArch: core: 13, cta: 0 initialized @(28722,0)
GPGPU-Sim uArch: Shader 4 finished CTA #0 (28764,0), 2 CTAs running
GPGPU-Sim uArch: core:  4, cta: 0 initialized @(28765,0)
GPGPU-Sim PTX: 15600000 instructions simulated : ctaid=(22,6,0) tid=(13,3,0)
GPGPU-Sim uArch: Shader 9 finished CTA #2 (28892,0), 2 CTAs running
GPGPU-Sim uArch: core:  9, cta: 2 initialized @(28893,0)
GPGPU-Sim uArch: Shader 0 finished CTA #2 (28984,0), 2 CTAs running
GPGPU-Sim uArch: core:  0, cta: 2 initialized @(28985,0)
GPGPU-Sim uArch: Shader 12 finished CTA #2 (29005,0), 2 CTAs running
GPGPU-Sim uArch: core: 12, cta: 2 initialized @(29006,0)
GPGPU-Sim PTX: 15700000 instructions simulated : ctaid=(22,6,0) tid=(7,6,0)
GPGPU-Sim uArch: Shader 3 finished CTA #2 (29025,0), 2 CTAs running
GPGPU-Sim uArch: core:  3, cta: 2 initialized @(29026,0)
GPGPU-Sim uArch: Shader 6 finished CTA #1 (29088,0), 2 CTAs running
GPGPU-Sim uArch: core:  6, cta: 1 initialized @(29089,0)
GPGPU-Sim PTX: 15800000 instructions simulated : ctaid=(39,6,0) tid=(1,4,0)
GPGPU-Sim uArch: Shader 7 finished CTA #0 (29308,0), 2 CTAs running
GPGPU-Sim uArch: core:  7, cta: 0 initialized @(29309,0)
GPGPU-Sim PTX: 15900000 instructions simulated : ctaid=(36,6,0) tid=(5,13,0)
GPGPU-Sim uArch: Shader 8 finished CTA #0 (29433,0), 2 CTAs running
GPGPU-Sim uArch: core:  8, cta: 0 initialized @(29434,0)
GPGPU-Sim PTX: 16000000 instructions simulated : ctaid=(31,6,0) tid=(10,9,0)
GPGPU-Sim PTX: 16100000 instructions simulated : ctaid=(30,6,0) tid=(11,5,0)
GPGPU-Sim uArch: Shader 1 finished CTA #0 (29616,0), 2 CTAs running
GPGPU-Sim uArch: core:  1, cta: 0 initialized @(29617,0)
GPGPU-Sim uArch: Shader 10 finished CTA #0 (29734,0), 2 CTAs running
GPGPU-Sim uArch: core: 10, cta: 0 initialized @(29735,0)
GPGPU-Sim uArch: Shader 5 finished CTA #1 (29740,0), 2 CTAs running
GPGPU-Sim uArch: core:  5, cta: 1 initialized @(29741,0)
GPGPU-Sim PTX: 16200000 instructions simulated : ctaid=(35,6,0) tid=(10,8,0)
GPGPU-Sim uArch: Shader 4 finished CTA #1 (29796,0), 2 CTAs running
GPGPU-Sim uArch: core:  4, cta: 1 initialized @(29797,0)
GPGPU-Sim uArch: Shader 11 finished CTA #0 (29814,0), 2 CTAs running
GPGPU-Sim uArch: core: 11, cta: 0 initialized @(29815,0)
GPGPU-Sim PTX: 16300000 instructions simulated : ctaid=(2,7,0) tid=(0,1,0)
GPGPU-Sim uArch: Shader 13 finished CTA #1 (29955,0), 2 CTAs running
GPGPU-Sim uArch: core: 13, cta: 1 initialized @(29956,0)
GPGPU-Sim uArch: Shader 9 finished CTA #0 (29977,0), 2 CTAs running
GPGPU-Sim uArch: core:  9, cta: 0 initialized @(29978,0)
GPGPU-Sim uArch: Shader 14 finished CTA #1 (29987,0), 2 CTAs running
GPGPU-Sim uArch: core: 14, cta: 1 initialized @(29988,0)
GPGPU-Sim uArch: cycles simulated: 30000  inst.: 14534110 (ipc=484.5) sim_rate=427473 (inst/sec) elapsed = 0:0:00:34 / Fri Jan 30 16:58:36 2015
GPGPU-Sim uArch: Shader 2 finished CTA #1 (30065,0), 2 CTAs running
GPGPU-Sim uArch: core:  2, cta: 1 initialized @(30066,0)
GPGPU-Sim PTX: 16400000 instructions simulated : ctaid=(39,6,0) tid=(0,15,0)
GPGPU-Sim uArch: Shader 3 finished CTA #1 (30197,0), 2 CTAs running
GPGPU-Sim uArch: core:  3, cta: 1 initialized @(30198,0)
GPGPU-Sim uArch: Shader 0 finished CTA #1 (30237,0), 2 CTAs running
GPGPU-Sim uArch: core:  0, cta: 1 initialized @(30238,0)
GPGPU-Sim PTX: 16500000 instructions simulated : ctaid=(1,7,0) tid=(4,3,0)
GPGPU-Sim PTX: 16600000 instructions simulated : ctaid=(34,6,0) tid=(4,2,0)
GPGPU-Sim uArch: Shader 12 finished CTA #0 (30417,0), 2 CTAs running
GPGPU-Sim uArch: core: 12, cta: 0 initialized @(30418,0)
GPGPU-Sim uArch: Shader 7 finished CTA #1 (30531,0), 2 CTAs running
GPGPU-Sim uArch: core:  7, cta: 1 initialized @(30532,0)
GPGPU-Sim PTX: 16700000 instructions simulated : ctaid=(35,6,0) tid=(10,12,0)
GPGPU-Sim uArch: Shader 6 finished CTA #0 (30643,0), 2 CTAs running
GPGPU-Sim uArch: core:  6, cta: 0 initialized @(30644,0)
GPGPU-Sim uArch: Shader 8 finished CTA #1 (30677,0), 2 CTAs running
GPGPU-Sim uArch: core:  8, cta: 1 initialized @(30678,0)
GPGPU-Sim PTX: 16800000 instructions simulated : ctaid=(35,6,0) tid=(3,11,0)
GPGPU-Sim uArch: Shader 1 finished CTA #1 (30837,0), 2 CTAs running
GPGPU-Sim uArch: core:  1, cta: 1 initialized @(30838,0)
GPGPU-Sim PTX: 16900000 instructions simulated : ctaid=(40,6,0) tid=(3,13,0)
GPGPU-Sim uArch: Shader 10 finished CTA #1 (30976,0), 2 CTAs running
GPGPU-Sim uArch: core: 10, cta: 1 initialized @(30977,0)
GPGPU-Sim uArch: Shader 14 finished CTA #0 (30983,0), 2 CTAs running
GPGPU-Sim uArch: core: 14, cta: 0 initialized @(30984,0)
GPGPU-Sim uArch: Shader 2 finished CTA #0 (31017,0), 2 CTAs running
GPGPU-Sim uArch: core:  2, cta: 0 initialized @(31018,0)
GPGPU-Sim uArch: Shader 5 finished CTA #0 (31072,0), 2 CTAs running
GPGPU-Sim uArch: core:  5, cta: 0 initialized @(31073,0)
GPGPU-Sim PTX: 17000000 instructions simulated : ctaid=(5,7,0) tid=(11,13,0)
GPGPU-Sim PTX: 17100000 instructions simulated : ctaid=(15,7,0) tid=(7,14,0)
GPGPU-Sim PTX: 17200000 instructions simulated : ctaid=(10,7,0) tid=(12,5,0)
GPGPU-Sim uArch: Shader 13 finished CTA #2 (31426,0), 2 CTAs running
GPGPU-Sim uArch: core: 13, cta: 2 initialized @(31427,0)
GPGPU-Sim uArch: Shader 0 finished CTA #0 (31554,0), 2 CTAs running
GPGPU-Sim uArch: core:  0, cta: 0 initialized @(31555,0)
GPGPU-Sim uArch: Shader 9 finished CTA #1 (31557,0), 2 CTAs running
GPGPU-Sim uArch: core:  9, cta: 1 initialized @(31558,0)
GPGPU-Sim uArch: Shader 11 finished CTA #1 (31592,0), 2 CTAs running
GPGPU-Sim uArch: core: 11, cta: 1 initialized @(31593,0)
GPGPU-Sim uArch: Shader 4 finished CTA #2 (31603,0), 2 CTAs running
GPGPU-Sim uArch: core:  4, cta: 2 initialized @(31604,0)
GPGPU-Sim PTX: 17300000 instructions simulated : ctaid=(17,7,0) tid=(13,1,0)
GPGPU-Sim uArch: Shader 6 finished CTA #2 (31677,0), 2 CTAs running
GPGPU-Sim uArch: core:  6, cta: 2 initialized @(31678,0)
GPGPU-Sim uArch: Shader 3 finished CTA #0 (31700,0), 2 CTAs running
GPGPU-Sim uArch: core:  3, cta: 0 initialized @(31701,0)
GPGPU-Sim uArch: Shader 12 finished CTA #1 (31774,0), 2 CTAs running
GPGPU-Sim uArch: core: 12, cta: 1 initialized @(31775,0)
GPGPU-Sim PTX: 17400000 instructions simulated : ctaid=(6,7,0) tid=(3,9,0)
GPGPU-Sim PTX: 17500000 instructions simulated : ctaid=(25,7,0) tid=(10,3,0)
GPGPU-Sim uArch: Shader 10 finished CTA #2 (32077,0), 2 CTAs running
GPGPU-Sim uArch: core: 10, cta: 2 initialized @(32078,0)
GPGPU-Sim uArch: Shader 8 finished CTA #2 (32082,0), 2 CTAs running
GPGPU-Sim uArch: core:  8, cta: 2 initialized @(32083,0)
GPGPU-Sim PTX: 17600000 instructions simulated : ctaid=(22,7,0) tid=(8,4,0)
GPGPU-Sim uArch: Shader 7 finished CTA #2 (32118,0), 2 CTAs running
GPGPU-Sim uArch: core:  7, cta: 2 initialized @(32119,0)
GPGPU-Sim uArch: Shader 5 finished CTA #2 (32225,0), 2 CTAs running
GPGPU-Sim uArch: core:  5, cta: 2 initialized @(32226,0)
GPGPU-Sim PTX: 17700000 instructions simulated : ctaid=(20,7,0) tid=(10,5,0)
GPGPU-Sim uArch: Shader 14 finished CTA #2 (32399,0), 2 CTAs running
GPGPU-Sim uArch: core: 14, cta: 2 initialized @(32400,0)
GPGPU-Sim PTX: 17800000 instructions simulated : ctaid=(27,7,0) tid=(5,12,0)
GPGPU-Sim uArch: Shader 1 finished CTA #2 (32442,0), 2 CTAs running
GPGPU-Sim uArch: core:  1, cta: 2 initialized @(32443,0)
[...]
GPGPU-Sim uArch: Shader 12 finished CTA #2 (167965,0), 2 CTAs running
GPGPU-Sim PTX: 99300000 instructions simulated : ctaid=(25,42,0) tid=(2,1,0)
GPGPU-Sim uArch: Shader 9 finished CTA #0 (168047,0), 2 CTAs running
GPGPU-Sim PTX: 99400000 instructions simulated : ctaid=(15,42,0) tid=(12,6,0)
GPGPU-Sim uArch: Shader 1 finished CTA #1 (168209,0), 2 CTAs running
GPGPU-Sim uArch: Shader 2 finished CTA #2 (168285,0), 2 CTAs running
GPGPU-Sim PTX: 99500000 instructions simulated : ctaid=(17,42,0) tid=(6,3,0)
GPGPU-Sim PTX: 99600000 instructions simulated : ctaid=(19,42,0) tid=(12,8,0)
GPGPU-Sim uArch: Shader 4 finished CTA #2 (168541,0), 1 CTAs running
GPGPU-Sim uArch: Shader 11 finished CTA #2 (168593,0), 2 CTAs running
GPGPU-Sim PTX: 99700000 instructions simulated : ctaid=(38,42,0) tid=(6,9,0)
GPGPU-Sim uArch: Shader 5 finished CTA #1 (168611,0), 2 CTAs running
GPGPU-Sim uArch: Shader 14 finished CTA #0 (168627,0), 2 CTAs running
GPGPU-Sim uArch: Shader 13 finished CTA #1 (168634,0), 1 CTAs running
GPGPU-Sim uArch: Shader 0 finished CTA #1 (168679,0), 1 CTAs running
GPGPU-Sim uArch: Shader 10 finished CTA #1 (168688,0), 1 CTAs running
GPGPU-Sim PTX: 99800000 instructions simulated : ctaid=(35,42,0) tid=(11,5,0)
GPGPU-Sim uArch: Shader 12 finished CTA #0 (168769,0), 1 CTAs running
GPGPU-Sim uArch: Shader 3 finished CTA #0 (168904,0), 2 CTAs running
GPGPU-Sim PTX: 99900000 instructions simulated : ctaid=(40,42,0) tid=(3,0,0)
GPGPU-Sim uArch: Shader 6 finished CTA #2 (168984,0), 1 CTAs running
GPGPU-Sim uArch: Shader 8 finished CTA #1 (168987,0), 1 CTAs running
GPGPU-Sim uArch: Shader 7 finished CTA #1 (169020,0), 1 CTAs running
GPGPU-Sim PTX: 100000000 instructions simulated : ctaid=(29,42,0) tid=(7,5,0)
GPGPU-Sim uArch: Shader 2 finished CTA #1 (169170,0), 1 CTAs running
GPGPU-Sim uArch: Shader 9 finished CTA #1 (169196,0), 1 CTAs running
GPGPU-Sim uArch: Shader 1 finished CTA #2 (169367,0), 1 CTAs running
GPGPU-Sim PTX: 100100000 instructions simulated : ctaid=(38,42,0) tid=(11,5,0)
GPGPU-Sim uArch: Shader 4 finished CTA #0 (169476,0), 0 CTAs running
GPGPU-Sim uArch: Shader 4 empty (release kernel 1 '_Z14calculate_tempiPfS_S_iiiiffffff').
GPGPU-Sim uArch: Shader 10 finished CTA #2 (169505,0), 0 CTAs running
GPGPU-Sim uArch: Shader 10 empty (release kernel 1 '_Z14calculate_tempiPfS_S_iiiiffffff').
GPGPU-Sim uArch: Shader 0 finished CTA #0 (169507,0), 0 CTAs running
GPGPU-Sim uArch: Shader 0 empty (release kernel 1 '_Z14calculate_tempiPfS_S_iiiiffffff').
GPGPU-Sim uArch: Shader 13 finished CTA #2 (169520,0), 0 CTAs running
GPGPU-Sim uArch: Shader 13 empty (release kernel 1 '_Z14calculate_tempiPfS_S_iiiiffffff').
GPGPU-Sim uArch: Shader 5 finished CTA #0 (169536,0), 1 CTAs running
GPGPU-Sim uArch: Shader 12 finished CTA #1 (169537,0), 0 CTAs running
GPGPU-Sim uArch: Shader 12 empty (release kernel 1 '_Z14calculate_tempiPfS_S_iiiiffffff').
GPGPU-Sim uArch: Shader 11 finished CTA #0 (169574,0), 1 CTAs running
GPGPU-Sim uArch: Shader 14 finished CTA #2 (169632,0), 1 CTAs running
GPGPU-Sim uArch: Shader 8 finished CTA #2 (169650,0), 0 CTAs running
GPGPU-Sim uArch: Shader 8 empty (release kernel 1 '_Z14calculate_tempiPfS_S_iiiiffffff').
GPGPU-Sim uArch: Shader 3 finished CTA #2 (169721,0), 1 CTAs running
GPGPU-Sim uArch: Shader 6 finished CTA #1 (169738,0), 0 CTAs running
GPGPU-Sim uArch: Shader 6 empty (release kernel 1 '_Z14calculate_tempiPfS_S_iiiiffffff').
GPGPU-Sim uArch: Shader 7 finished CTA #2 (169770,0), 0 CTAs running
GPGPU-Sim uArch: Shader 7 empty (release kernel 1 '_Z14calculate_tempiPfS_S_iiiiffffff').
GPGPU-Sim uArch: Shader 9 finished CTA #2 (169910,0), 0 CTAs running
GPGPU-Sim uArch: Shader 9 empty (release kernel 1 '_Z14calculate_tempiPfS_S_iiiiffffff').
GPGPU-Sim uArch: Shader 2 finished CTA #0 (169933,0), 0 CTAs running
GPGPU-Sim uArch: Shader 2 empty (release kernel 1 '_Z14calculate_tempiPfS_S_iiiiffffff').
GPGPU-Sim uArch: Shader 1 finished CTA #0 (169984,0), 0 CTAs running
GPGPU-Sim uArch: Shader 1 empty (release kernel 1 '_Z14calculate_tempiPfS_S_iiiiffffff').
GPGPU-Sim uArch: cycles simulated: 170000  inst.: 89076396 (ipc=524.0) sim_rate=452164 (inst/sec) elapsed = 0:0:03:17 / Fri Jan 30 17:01:19 2015
GPGPU-Sim uArch: Shader 5 finished CTA #2 (170184,0), 0 CTAs running
GPGPU-Sim uArch: Shader 5 empty (release kernel 1 '_Z14calculate_tempiPfS_S_iiiiffffff').
GPGPU-Sim uArch: Shader 11 finished CTA #1 (170227,0), 0 CTAs running
GPGPU-Sim uArch: Shader 11 empty (release kernel 1 '_Z14calculate_tempiPfS_S_iiiiffffff').
GPGPU-Sim uArch: Shader 14 finished CTA #1 (170271,0), 0 CTAs running
GPGPU-Sim uArch: Shader 14 empty (release kernel 1 '_Z14calculate_tempiPfS_S_iiiiffffff').
GPGPU-Sim uArch: Shader 3 finished CTA #1 (170368,0), 0 CTAs running
GPGPU-Sim uArch: Shader 3 empty (release kernel 1 '_Z14calculate_tempiPfS_S_iiiiffffff').
GPGPU-Sim uArch: GPU detected kernel '_Z14calculate_tempiPfS_S_iiiiffffff' finished on shader 3.
kernel_name = _Z14calculate_tempiPfS_S_iiiiffffff 
kernel_launch_uid = 1 
gpu_sim_cycle = 170369
gpu_sim_insn = 89083700
gpu_ipc =     522.8868
gpu_tot_sim_cycle = 170369
gpu_tot_sim_insn = 89083700
gpu_tot_ipc =     522.8868
gpu_tot_issued_cta = 0
gpu_stall_dramfull = 2412
gpu_stall_icnt2sh    = 165209
gpu_total_sim_rate=452201

========= Core cache stats =========
L1I_cache:
	L1I_total_cache_accesses = 1794302
	L1I_total_cache_misses = 3008
	L1I_total_cache_miss_rate = 0.0017
	L1I_total_cache_pending_hits = 0
	L1I_total_cache_reservation_fails = 0
L1D_cache:
	L1D_cache_core[0]: Access = 7168, Miss = 7152, Miss_rate = 0.998, Pending_hits = 0, Reservation_fails = 54093
	L1D_cache_core[1]: Access = 7768, Miss = 7754, Miss_rate = 0.998, Pending_hits = 0, Reservation_fails = 53154
	L1D_cache_core[2]: Access = 7656, Miss = 7628, Miss_rate = 0.996, Pending_hits = 0, Reservation_fails = 50992
	L1D_cache_core[3]: Access = 7892, Miss = 7870, Miss_rate = 0.997, Pending_hits = 0, Reservation_fails = 51314
	L1D_cache_core[4]: Access = 7572, Miss = 7555, Miss_rate = 0.998, Pending_hits = 0, Reservation_fails = 51328
	L1D_cache_core[5]: Access = 7664, Miss = 7654, Miss_rate = 0.999, Pending_hits = 0, Reservation_fails = 50703
	L1D_cache_core[6]: Access = 7368, Miss = 7356, Miss_rate = 0.998, Pending_hits = 0, Reservation_fails = 50677
	L1D_cache_core[7]: Access = 7272, Miss = 7260, Miss_rate = 0.998, Pending_hits = 0, Reservation_fails = 53221
	L1D_cache_core[8]: Access = 7416, Miss = 7399, Miss_rate = 0.998, Pending_hits = 0, Reservation_fails = 51921
	L1D_cache_core[9]: Access = 7544, Miss = 7524, Miss_rate = 0.997, Pending_hits = 0, Reservation_fails = 51766
	L1D_cache_core[10]: Access = 7440, Miss = 7414, Miss_rate = 0.997, Pending_hits = 0, Reservation_fails = 51022
	L1D_cache_core[11]: Access = 7680, Miss = 7652, Miss_rate = 0.996, Pending_hits = 0, Reservation_fails = 54387
	L1D_cache_core[12]: Access = 7220, Miss = 7204, Miss_rate = 0.998, Pending_hits = 0, Reservation_fails = 53787
	L1D_cache_core[13]: Access = 7716, Miss = 7697, Miss_rate = 0.998, Pending_hits = 0, Reservation_fails = 53696
	L1D_cache_core[14]: Access = 7440, Miss = 7425, Miss_rate = 0.998, Pending_hits = 0, Reservation_fails = 52370
	L1D_total_cache_accesses = 112816
	L1D_total_cache_misses = 112544
	L1D_total_cache_miss_rate = 0.9976
	L1D_total_cache_pending_hits = 0
	L1D_total_cache_reservation_fails = 784431
	L1D_cache_data_port_util = 0.000
	L1D_cache_fill_port_util = 0.034
L1C_cache:
	L1C_total_cache_accesses = 0
	L1C_total_cache_misses = 0
	L1C_total_cache_pending_hits = 0
	L1C_total_cache_reservation_fails = 0
L1T_cache:
	L1T_total_cache_accesses = 0
	L1T_total_cache_misses = 0
	L1T_total_cache_pending_hits = 0
	L1T_total_cache_reservation_fails = 0

Total_core_cache_stats:
	Total_core_cache_stats_breakdown[GLOBAL_ACC_R][HIT] = 272
	Total_core_cache_stats_breakdown[GLOBAL_ACC_R][MISS] = 85408
	Total_core_cache_stats_breakdown[GLOBAL_ACC_R][RESERVATION_FAIL] = 782205
	Total_core_cache_stats_breakdown[GLOBAL_ACC_W][MISS] = 27136
	Total_core_cache_stats_breakdown[GLOBAL_ACC_W][RESERVATION_FAIL] = 2226
	Total_core_cache_stats_breakdown[INST_ACC_R][HIT] = 1791294
	Total_core_cache_stats_breakdown[INST_ACC_R][MISS] = 3008
Shader 0 warp_id issue ditsribution:
warp_id:
0, 1, 2, 3, 4, 5, 6, 7, 8, 9, 10, 11, 12, 13, 14, 15, 16, 17, 18, 19, 20, 21, 22, 23, 
distro:
7556, 10496, 10496, 10496, 10496, 10371, 10371, 7643, 7556, 10496, 10496, 10496, 10496, 10371, 10371, 7643, 7440, 10240, 10240, 10240, 10240, 10115, 10115, 7455, 
gpgpu_n_tot_thrd_icount = 112481120
gpgpu_n_tot_w_icount = 3515035
gpgpu_n_stall_shd_mem = 856999
gpgpu_n_mem_read_local = 0
gpgpu_n_mem_write_local = 0
gpgpu_n_mem_read_global = 85408
gpgpu_n_mem_write_global = 27136
gpgpu_n_mem_texture = 0
gpgpu_n_mem_const = 0
gpgpu_n_load_insn  = 924800
gpgpu_n_store_insn = 262144
gpgpu_n_shmem_insn = 6840720
gpgpu_n_tex_insn = 0
gpgpu_n_const_mem_insn = 0
gpgpu_n_param_mem_insn = 0
gpgpu_n_shmem_bkconflict = 0
gpgpu_n_cache_bkconflict = 0
gpgpu_n_intrawarp_mshr_merge = 0
gpgpu_n_cmem_portconflict = 0
gpgpu_stall_shd_mem[c_mem][bk_conf] = 0
gpgpu_stall_shd_mem[c_mem][mshr_rc] = 0
gpgpu_stall_shd_mem[c_mem][icnt_rc] = 0
gpgpu_stall_shd_mem[c_mem][data_port_stall] = 0
gpgpu_stall_shd_mem[t_mem][mshr_rc] = 0
gpgpu_stall_shd_mem[t_mem][icnt_rc] = 0
gpgpu_stall_shd_mem[t_mem][data_port_stall] = 0
gpgpu_stall_shd_mem[s_mem][bk_conf] = 0
gpgpu_stall_shd_mem[gl_mem][bk_conf] = 0
gpgpu_stall_shd_mem[gl_mem][coal_stall] = 856999
gpgpu_stall_shd_mem[gl_mem][data_port_stall] = 0
gpgpu_stall_shd_mem[g_mem_ld][mshr_rc] = 0
gpgpu_stall_shd_mem[g_mem_ld][icnt_rc] = 0
gpgpu_stall_shd_mem[g_mem_ld][wb_icnt_rc] = 0
gpgpu_stall_shd_mem[g_mem_ld][wb_rsrv_fail] = 0
gpgpu_stall_shd_mem[g_mem_st][mshr_rc] = 0
gpgpu_stall_shd_mem[g_mem_st][icnt_rc] = 0
gpgpu_stall_shd_mem[g_mem_st][wb_icnt_rc] = 0
gpgpu_stall_shd_mem[g_mem_st][wb_rsrv_fail] = 0
gpgpu_stall_shd_mem[l_mem_ld][mshr_rc] = 0
gpgpu_stall_shd_mem[l_mem_ld][icnt_rc] = 0
gpgpu_stall_shd_mem[l_mem_ld][wb_icnt_rc] = 0
gpgpu_stall_shd_mem[l_mem_ld][wb_rsrv_fail] = 0
gpgpu_stall_shd_mem[l_mem_st][mshr_rc] = 0
gpgpu_stall_shd_mem[l_mem_st][icnt_rc] = 0
gpgpu_stall_shd_mem[l_mem_ld][wb_icnt_rc] = 0
gpgpu_stall_shd_mem[l_mem_ld][wb_rsrv_fail] = 0
gpu_reg_bank_conflict_stalls = 0
Warp Occupancy Distribution:
Stall:1104028	W0_Idle:60857	W0_Scoreboard:415270	W1:0	W2:0	W3:0	W4:0	W5:0	W6:0	W7:0	W8:0	W9:3450	W10:0	W11:0	W12:0	W13:3622	W14:159768	W15:0	W16:16392	W17:0	W18:10504	W19:0	W20:5440	W21:0	W22:0	W23:0	W24:788310	W25:0	W26:11020	W27:0	W28:580830	W29:0	W30:44376	W31:0	W32:1891323
traffic_breakdown_coretomem[GLOBAL_ACC_R] = 683264 {8:85408,}
traffic_breakdown_coretomem[GLOBAL_ACC_W] = 1970176 {40:10752,72:10752,136:5632,}
traffic_breakdown_coretomem[INST_ACC_R] = 1560 {8:195,}
traffic_breakdown_memtocore[GLOBAL_ACC_R] = 11615488 {136:85408,}
traffic_breakdown_memtocore[GLOBAL_ACC_W] = 217088 {8:27136,}
traffic_breakdown_memtocore[INST_ACC_R] = 26520 {136:195,}
Memory Partition 0: 
Cache L2_bank_000:
MSHR contents

Cache L2_bank_001:
MSHR contents

In Dram Latency Queue (total = 0): 
DRAM[0]: 16 bks, busW=4 BL=8 CL=12, tRRD=2 tCCD=6, tRCD=12 tRAS=28 tRP=12 tRC=40
n_cmd=224886 n_nop=209071 n_act=1578 n_pre=1562 n_req=7162 n_rd=8198 n_write=4477 bw_util=0.1127
n_activity=110919 dram_eff=0.2285
bk0: 516a 218630i bk1: 514a 218787i bk2: 512a 218481i bk3: 512a 217913i bk4: 512a 217937i bk5: 512a 218163i bk6: 512a 217476i bk7: 512a 217951i bk8: 512a 218253i bk9: 512a 218017i bk10: 512a 218577i bk11: 512a 218336i bk12: 512a 218974i bk13: 512a 218603i bk14: 512a 218548i bk15: 512a 218635i 
dram_util_bins: 0 0 0 0 0 0 0 0 0 0
dram_eff_bins: 0 0 0 0 0 0 0 0 0 0
mrqq: max=16 avg=0.594137
Memory Partition 1: 
Cache L2_bank_002:
MSHR contents

Cache L2_bank_003:
MSHR contents

In Dram Latency Queue (total = 0): 
DRAM[1]: 16 bks, busW=4 BL=8 CL=12, tRRD=2 tCCD=6, tRCD=12 tRAS=28 tRP=12 tRC=40
n_cmd=224886 n_nop=208930 n_act=1563 n_pre=1547 n_req=7195 n_rd=8196 n_write=4650 bw_util=0.1142
n_activity=111319 dram_eff=0.2308
bk0: 516a 218517i bk1: 512a 218403i bk2: 512a 217641i bk3: 512a 218376i bk4: 512a 218012i bk5: 512a 217636i bk6: 512a 217973i bk7: 512a 218610i bk8: 512a 218381i bk9: 512a 218286i bk10: 512a 218562i bk11: 512a 218298i bk12: 512a 218911i bk13: 512a 218726i bk14: 512a 218518i bk15: 512a 218492i 
dram_util_bins: 0 0 0 0 0 0 0 0 0 0
dram_eff_bins: 0 0 0 0 0 0 0 0 0 0
mrqq: max=16 avg=0.598757
Memory Partition 2: 
Cache L2_bank_004:
MSHR contents

Cache L2_bank_005:
MSHR contents

In Dram Latency Queue (total = 0): 
DRAM[2]: 16 bks, busW=4 BL=8 CL=12, tRRD=2 tCCD=6, tRCD=12 tRAS=28 tRP=12 tRC=40
n_cmd=224886 n_nop=209117 n_act=1554 n_pre=1538 n_req=7166 n_rd=8196 n_write=4481 bw_util=0.1127
n_activity=110345 dram_eff=0.2298
bk0: 516a 218958i bk1: 512a 218517i bk2: 512a 218011i bk3: 512a 218406i bk4: 512a 217936i bk5: 512a 217965i bk6: 512a 217999i bk7: 512a 217797i bk8: 512a 218117i bk9: 512a 218080i bk10: 512a 218527i bk11: 512a 218656i bk12: 512a 218403i bk13: 512a 218897i bk14: 512a 218726i bk15: 512a 218588i 
dram_util_bins: 0 0 0 0 0 0 0 0 0 0
dram_eff_bins: 0 0 0 0 0 0 0 0 0 0
mrqq: max=16 avg=0.625975
Memory Partition 3: 
Cache L2_bank_006:
MSHR contents

Cache L2_bank_007:
MSHR contents

In Dram Latency Queue (total = 0): 
DRAM[3]: 16 bks, busW=4 BL=8 CL=12, tRRD=2 tCCD=6, tRCD=12 tRAS=28 tRP=12 tRC=40
n_cmd=224886 n_nop=209026 n_act=1510 n_pre=1494 n_req=7206 n_rd=8196 n_write=4660 bw_util=0.1143
n_activity=109610 dram_eff=0.2346
bk0: 516a 218287i bk1: 512a 218622i bk2: 512a 218138i bk3: 512a 217564i bk4: 512a 217718i bk5: 512a 217936i bk6: 512a 218326i bk7: 512a 217828i bk8: 512a 218135i bk9: 512a 218250i bk10: 512a 218589i bk11: 512a 218627i bk12: 512a 219087i bk13: 512a 219709i bk14: 512a 218874i bk15: 512a 218969i 
dram_util_bins: 0 0 0 0 0 0 0 0 0 0
dram_eff_bins: 0 0 0 0 0 0 0 0 0 0
mrqq: max=16 avg=0.60508
Memory Partition 4: 
Cache L2_bank_008:
MSHR contents

Cache L2_bank_009:
MSHR contents

In Dram Latency Queue (total = 0): 
DRAM[4]: 16 bks, busW=4 BL=8 CL=12, tRRD=2 tCCD=6, tRCD=12 tRAS=28 tRP=12 tRC=40
n_cmd=224886 n_nop=209064 n_act=1580 n_pre=1564 n_req=7161 n_rd=8196 n_write=4482 bw_util=0.1128
n_activity=110370 dram_eff=0.2297
bk0: 516a 218495i bk1: 512a 218902i bk2: 512a 218288i bk3: 512a 217943i bk4: 512a 217707i bk5: 512a 217743i bk6: 512a 217840i bk7: 512a 217750i bk8: 512a 218009i bk9: 512a 218117i bk10: 512a 218710i bk11: 512a 218480i bk12: 512a 219096i bk13: 512a 218725i bk14: 512a 218587i bk15: 512a 218794i 
dram_util_bins: 0 0 0 0 0 0 0 0 0 0
dram_eff_bins: 0 0 0 0 0 0 0 0 0 0
mrqq: max=16 avg=0.602012
Memory Partition 5: 
Cache L2_bank_010:
MSHR contents

Cache L2_bank_011:
MSHR contents

In Dram Latency Queue (total = 0): 
DRAM[5]: 16 bks, busW=4 BL=8 CL=12, tRRD=2 tCCD=6, tRCD=12 tRAS=28 tRP=12 tRC=40
n_cmd=224886 n_nop=208929 n_act=1563 n_pre=1547 n_req=7195 n_rd=8196 n_write=4651 bw_util=0.1143
n_activity=111156 dram_eff=0.2312
bk0: 516a 218391i bk1: 512a 218424i bk2: 512a 217708i bk3: 512a 218266i bk4: 512a 217888i bk5: 512a 217601i bk6: 512a 218128i bk7: 512a 218659i bk8: 512a 217957i bk9: 512a 218160i bk10: 512a 218628i bk11: 512a 218449i bk12: 512a 219244i bk13: 512a 218827i bk14: 512a 218746i bk15: 512a 218749i 
dram_util_bins: 0 0 0 0 0 0 0 0 0 0
dram_eff_bins: 0 0 0 0 0 0 0 0 0 0
mrqq: max=16 avg=0.590108

========= L2 cache stats =========
L2_cache_bank[0]: Access = 8901, Miss = 2050, Miss_rate = 0.230, Pending_hits = 1174, Reservation_fails = 203
L2_cache_bank[1]: Access = 9866, Miss = 2049, Miss_rate = 0.208, Pending_hits = 1304, Reservation_fails = 99
L2_cache_bank[2]: Access = 9362, Miss = 2050, Miss_rate = 0.219, Pending_hits = 1200, Reservation_fails = 99
L2_cache_bank[3]: Access = 9675, Miss = 2048, Miss_rate = 0.212, Pending_hits = 1331, Reservation_fails = 0
L2_cache_bank[4]: Access = 9536, Miss = 2050, Miss_rate = 0.215, Pending_hits = 1306, Reservation_fails = 168
L2_cache_bank[5]: Access = 8913, Miss = 2048, Miss_rate = 0.230, Pending_hits = 1155, Reservation_fails = 0
L2_cache_bank[6]: Access = 9359, Miss = 2050, Miss_rate = 0.219, Pending_hits = 1339, Reservation_fails = 201
L2_cache_bank[7]: Access = 9339, Miss = 2048, Miss_rate = 0.219, Pending_hits = 1201, Reservation_fails = 0
L2_cache_bank[8]: Access = 9242, Miss = 2050, Miss_rate = 0.222, Pending_hits = 1181, Reservation_fails = 186
L2_cache_bank[9]: Access = 9510, Miss = 2048, Miss_rate = 0.215, Pending_hits = 1288, Reservation_fails = 0
L2_cache_bank[10]: Access = 9708, Miss = 2050, Miss_rate = 0.211, Pending_hits = 1245, Reservation_fails = 198
L2_cache_bank[11]: Access = 9328, Miss = 2048, Miss_rate = 0.220, Pending_hits = 1309, Reservation_fails = 0
L2_total_cache_accesses = 112739
L2_total_cache_misses = 24589
L2_total_cache_miss_rate = 0.2181
L2_total_cache_pending_hits = 15033
L2_total_cache_reservation_fails = 1154
L2_total_cache_breakdown:
	L2_cache_stats_breakdown[GLOBAL_ACC_R][HIT] = 58771
	L2_cache_stats_breakdown[GLOBAL_ACC_R][HIT_RESERVED] = 10253
	L2_cache_stats_breakdown[GLOBAL_ACC_R][MISS] = 16384
	L2_cache_stats_breakdown[GLOBAL_ACC_W][HIT] = 14202
	L2_cache_stats_breakdown[GLOBAL_ACC_W][HIT_RESERVED] = 4742
	L2_cache_stats_breakdown[GLOBAL_ACC_W][MISS] = 8192
	L2_cache_stats_breakdown[GLOBAL_ACC_W][RESERVATION_FAIL] = 1
	L2_cache_stats_breakdown[INST_ACC_R][HIT] = 144
	L2_cache_stats_breakdown[INST_ACC_R][HIT_RESERVED] = 38
	L2_cache_stats_breakdown[INST_ACC_R][MISS] = 13
	L2_cache_stats_breakdown[INST_ACC_R][RESERVATION_FAIL] = 1153
L2_cache_data_port_util = 0.139
L2_cache_fill_port_util = 0.048

icnt_total_pkts_mem_to_simt=455151
icnt_total_pkts_simt_to_mem=167523
LD_mem_lat_dist  0 0 0 0 0 0 0 0 0 0 0 0 0 0 0 0 0 0 0 0 0 0 0 0 0 0 0
ST_mem_lat_dist  0 0 0 0 0 0 0 0 0 0 0 0 0 0 0 0 0 0 0 0 0 0 0 0 0 0 0
----------------------------Interconnect-DETAILS--------------------------------
Class 0:
Packet latency average = 14.7208
	minimum = 6
	maximum = 135
Network latency average = 12.4611
	minimum = 6
	maximum = 104
Slowest packet = 1152
Flit latency average = 11.5525
	minimum = 6
	maximum = 104
Slowest flit = 615273
Fragmentation average = 0
	minimum = 0
	maximum = 0
Injected packet rate average = 0.0490174
	minimum = 0.0420558 (at node 0)
	maximum = 0.0579096 (at node 16)
Accepted packet rate average = 0.0490174
	minimum = 0.0420558 (at node 0)
	maximum = 0.0579096 (at node 16)
Injected flit rate average = 0.135365
	minimum = 0.0625759 (at node 0)
	maximum = 0.233505 (at node 16)
Accepted flit rate average= 0.135365
	minimum = 0.0793337 (at node 20)
	maximum = 0.18693 (at node 3)
Injected packet length average = 2.76157
Accepted packet length average = 2.76157
Total in-flight flits = 0 (0 measured)
====== Overall Traffic Statistics ======
====== Traffic class 0 ======
Packet latency average = 14.7208 (1 samples)
	minimum = 6 (1 samples)
	maximum = 135 (1 samples)
Network latency average = 12.4611 (1 samples)
	minimum = 6 (1 samples)
	maximum = 104 (1 samples)
Flit latency average = 11.5525 (1 samples)
	minimum = 6 (1 samples)
	maximum = 104 (1 samples)
Fragmentation average = 0 (1 samples)
	minimum = 0 (1 samples)
	maximum = 0 (1 samples)
Injected packet rate average = 0.0490174 (1 samples)
	minimum = 0.0420558 (1 samples)
	maximum = 0.0579096 (1 samples)
Accepted packet rate average = 0.0490174 (1 samples)
	minimum = 0.0420558 (1 samples)
	maximum = 0.0579096 (1 samples)
Injected flit rate average = 0.135365 (1 samples)
	minimum = 0.0625759 (1 samples)
	maximum = 0.233505 (1 samples)
Accepted flit rate average = 0.135365 (1 samples)
	minimum = 0.0793337 (1 samples)
	maximum = 0.18693 (1 samples)
Injected packet size average = 2.76157 (1 samples)
Accepted packet size average = 2.76157 (1 samples)
Hops average = 1 (1 samples)
----------------------------END-of-Interconnect-DETAILS-------------------------


gpgpu_simulation_time = 0 days, 0 hrs, 3 min, 17 sec (197 sec)
gpgpu_simulation_rate = 452201 (inst/sec)
gpgpu_simulation_rate = 864 (cycle/sec)
Ending simulation
