

        *** GPGPU-Sim Simulator Version 3.2.2  [build 17315] ***


GPGPU-Sim PTX: simulation mode 0 (can change with PTX_SIM_MODE_FUNC environment variable:
               1=functional simulation only, 0=detailed performance simulator)
GPGPU-Sim: Configuration options:

-network_mode                           1 # Interconnection network mode
-inter_config_file   config_fermi_islip.icnt # Interconnection network config file
-gpgpu_ptx_use_cuobjdump                    1 # Use cuobjdump to extract ptx and sass from binaries
-gpgpu_experimental_lib_support                    0 # Try to extract code from cuda libraries [Broken because of unknown cudaGetExportTable]
-gpgpu_ptx_convert_to_ptxplus                    1 # Convert SASS (native ISA) to ptxplus and run ptxplus
-gpgpu_ptx_force_max_capability                   20 # Force maximum compute capability
-gpgpu_ptx_inst_debug_to_file                    0 # Dump executed instructions' debug information to file
-gpgpu_ptx_inst_debug_file       inst_debug.txt # Executed instructions' debug output file
-gpgpu_ptx_inst_debug_thread_uid                    1 # Thread UID for executed instructions' debug output
-gpgpu_simd_model                       1 # 1 = post-dominator
-gpgpu_shader_core_pipeline              1536:32 # shader core pipeline config, i.e., {<nthread>:<warpsize>}
-gpgpu_tex_cache:l1  4:128:24,L:R:m:N,F:128:4,128:2 # per-shader L1 texture cache  (READ-ONLY) config  {<nsets>:<bsize>:<assoc>,<rep>:<wr>:<alloc>:<wr_alloc>,<mshr>:<N>:<merge>,<mq>:<rf>}
-gpgpu_const_cache:l1 64:64:2,L:R:f:N,A:2:32,4 # per-shader L1 constant memory cache  (READ-ONLY) config  {<nsets>:<bsize>:<assoc>,<rep>:<wr>:<alloc>:<wr_alloc>,<mshr>:<N>:<merge>,<mq>} 
-gpgpu_cache:il1     4:128:4,L:R:f:N,A:2:32,4 # shader L1 instruction cache config  {<nsets>:<bsize>:<assoc>,<rep>:<wr>:<alloc>:<wr_alloc>,<mshr>:<N>:<merge>,<mq>} 
-gpgpu_cache:dl1     32:128:4,L:L:m:N,A:32:8,8 # per-shader L1 data cache config  {<nsets>:<bsize>:<assoc>,<rep>:<wr>:<alloc>:<wr_alloc>,<mshr>:<N>:<merge>,<mq> | none}
-gpgpu_cache:dl1PrefL1                 none # per-shader L1 data cache config  {<nsets>:<bsize>:<assoc>,<rep>:<wr>:<alloc>:<wr_alloc>,<mshr>:<N>:<merge>,<mq> | none}
-gpgpu_cache:dl1PreShared                 none # per-shader L1 data cache config  {<nsets>:<bsize>:<assoc>,<rep>:<wr>:<alloc>:<wr_alloc>,<mshr>:<N>:<merge>,<mq> | none}
-gmem_skip_L1D                          0 # global memory access skip L1D cache (implements -Xptxas -dlcm=cg, default=no skip)
-gpgpu_perfect_mem                      0 # enable perfect memory mode (no cache miss)
-n_regfile_gating_group                    4 # group of lanes that should be read/written together)
-gpgpu_clock_gated_reg_file                    0 # enable clock gated reg file for power calculations
-gpgpu_clock_gated_lanes                    0 # enable clock gated lanes for power calculations
-gpgpu_shader_registers                32768 # Number of registers per shader core. Limits number of concurrent CTAs. (default 8192)
-gpgpu_shader_cta                       8 # Maximum number of concurrent CTAs in shader (default 8)
-gpgpu_n_clusters                      15 # number of processing clusters
-gpgpu_n_cores_per_cluster                    1 # number of simd cores per cluster
-gpgpu_n_cluster_ejection_buffer_size                    8 # number of packets in ejection buffer
-gpgpu_n_ldst_response_buffer_size                    2 # number of response packets in ld/st unit ejection buffer
-gpgpu_shmem_size                   16384 # Size of shared memory per shader core (default 16kB)
-gpgpu_shmem_size                   49152 # Size of shared memory per shader core (default 16kB)
-gpgpu_shmem_size_PrefL1                16384 # Size of shared memory per shader core (default 16kB)
-gpgpu_shmem_size_PrefShared                16384 # Size of shared memory per shader core (default 16kB)
-gpgpu_shmem_num_banks                   32 # Number of banks in the shared memory in each shader core (default 16)
-gpgpu_shmem_limited_broadcast                    0 # Limit shared memory to do one broadcast per cycle (default on)
-gpgpu_shmem_warp_parts                    1 # Number of portions a warp is divided into for shared memory bank conflict check 
-gpgpu_warpdistro_shader                   -1 # Specify which shader core to collect the warp size distribution from
-gpgpu_warp_issue_shader                    0 # Specify which shader core to collect the warp issue distribution from
-gpgpu_local_mem_map                    1 # Mapping from local memory space address to simulated GPU physical address space (default = enabled)
-gpgpu_num_reg_banks                   16 # Number of register banks (default = 8)
-gpgpu_reg_bank_use_warp_id                    0 # Use warp ID in mapping registers to banks (default = off)
-gpgpu_operand_collector_num_units_sp                    6 # number of collector units (default = 4)
-gpgpu_operand_collector_num_units_sfu                    8 # number of collector units (default = 4)
-gpgpu_operand_collector_num_units_mem                    2 # number of collector units (default = 2)
-gpgpu_operand_collector_num_units_gen                    0 # number of collector units (default = 0)
-gpgpu_operand_collector_num_in_ports_sp                    2 # number of collector unit in ports (default = 1)
-gpgpu_operand_collector_num_in_ports_sfu                    1 # number of collector unit in ports (default = 1)
-gpgpu_operand_collector_num_in_ports_mem                    1 # number of collector unit in ports (default = 1)
-gpgpu_operand_collector_num_in_ports_gen                    0 # number of collector unit in ports (default = 0)
-gpgpu_operand_collector_num_out_ports_sp                    2 # number of collector unit in ports (default = 1)
-gpgpu_operand_collector_num_out_ports_sfu                    1 # number of collector unit in ports (default = 1)
-gpgpu_operand_collector_num_out_ports_mem                    1 # number of collector unit in ports (default = 1)
-gpgpu_operand_collector_num_out_ports_gen                    0 # number of collector unit in ports (default = 0)
-gpgpu_coalesce_arch                   13 # Coalescing arch (default = 13, anything else is off for now)
-gpgpu_num_sched_per_core                    2 # Number of warp schedulers per core
-gpgpu_max_insn_issue_per_warp                    1 # Max number of instructions that can be issued per warp in one cycle by scheduler
-gpgpu_simt_core_sim_order                    1 # Select the simulation order of cores in a cluster (0=Fix, 1=Round-Robin)
-gpgpu_pipeline_widths        2,1,1,2,1,1,2 # Pipeline widths ID_OC_SP,ID_OC_SFU,ID_OC_MEM,OC_EX_SP,OC_EX_SFU,OC_EX_MEM,EX_WB
-gpgpu_num_sp_units                     2 # Number of SP units (default=1)
-gpgpu_num_sfu_units                    1 # Number of SF units (default=1)
-gpgpu_num_mem_units                    1 # Number if ldst units (default=1) WARNING: not hooked up to anything
-gpgpu_scheduler                      gto # Scheduler configuration: < lrr | gto | two_level_active > If two_level_active:<num_active_warps>:<inner_prioritization>:<outer_prioritization>For complete list of prioritization values see shader.h enum scheduler_prioritization_typeDefault: gto
-gpgpu_dram_scheduler                    1 # 0 = fifo, 1 = FR-FCFS (defaul)
-gpgpu_dram_partition_queues              8:8:8:8 # i2$:$2d:d2$:$2i
-l2_ideal                               0 # Use a ideal L2 cache that always hit
-gpgpu_cache:dl2     64:128:8,L:B:m:W,A:32:4,4:0,32 # unified banked L2 data cache config  {<nsets>:<bsize>:<assoc>,<rep>:<wr>:<alloc>:<wr_alloc>,<mshr>:<N>:<merge>,<mq>}
-gpgpu_cache:dl2_texture_only                    0 # L2 cache used for texture only
-gpgpu_n_mem                            6 # number of memory modules (e.g. memory controllers) in gpu
-gpgpu_n_sub_partition_per_mchannel                    2 # number of memory subpartition in each memory module
-gpgpu_n_mem_per_ctrlr                    2 # number of memory chips per memory controller
-gpgpu_memlatency_stat                   14 # track and display latency statistics 0x2 enables MC, 0x4 enables queue logs
-gpgpu_frfcfs_dram_sched_queue_size                   16 # 0 = unlimited (default); # entries per chip
-gpgpu_dram_return_queue_size                  116 # 0 = unlimited (default); # entries per chip
-gpgpu_dram_buswidth                    4 # default = 4 bytes (8 bytes per cycle at DDR)
-gpgpu_dram_burst_length                    8 # Burst length of each DRAM request (default = 4 data bus cycle)
-dram_data_command_freq_ratio                    4 # Frequency ratio between DRAM data bus and command bus (default = 2 times, i.e. DDR)
-gpgpu_dram_timing_opt nbk=16:CCD=2:RRD=6:RCD=12:RAS=28:RP=12:RC=40: CL=12:WL=4:CDLR=5:WR=12:nbkgrp=4:CCDL=3:RTPL=2 # DRAM timing parameters = {nbk:tCCD:tRRD:tRCD:tRAS:tRP:tRC:CL:WL:tCDLR:tWR:nbkgrp:tCCDL:tRTPL}
-rop_latency                          120 # ROP queue latency (default 85)
-dram_latency                         100 # DRAM latency (default 30)
-gpgpu_mem_addr_mapping dramid@8;00000000.00000000.00000000.00000000.0000RRRR.RRRRRRRR.BBBCCCCB.CCSSSSSS # mapping memory address to dram model {dramid@<start bit>;<memory address map>}
-gpgpu_mem_addr_test                    0 # run sweep test to check address mapping for aliased address
-gpgpu_mem_address_mask                    1 # 0 = old addressing mask, 1 = new addressing mask, 2 = new add. mask + flipped bank sel and chip sel bits
-gpuwattch_xml_file  gpuwattch_gtx480.xml # GPUWattch XML file
-power_simulation_enabled                    1 # Turn on power simulator (1=On, 0=Off)
-power_per_cycle_dump                    0 # Dump detailed power output each cycle
-power_trace_enabled                    0 # produce a file for the power trace (1=On, 0=Off)
-power_trace_zlevel                     6 # Compression level of the power trace output log (0=no comp, 9=highest)
-steady_power_levels_enabled                    0 # produce a file for the steady power levels (1=On, 0=Off)
-steady_state_definition                  8:4 # allowed deviation:number of samples
-gpgpu_max_cycle                        0 # terminates gpu simulation early (0 = no limit)
-gpgpu_max_insn                         0 # terminates gpu simulation early (0 = no limit)
-gpgpu_max_cta                          0 # terminates gpu simulation early (0 = no limit)
-gpgpu_runtime_stat                   500 # display runtime statistics such as dram utilization {<freq>:<flag>}
-liveness_message_freq                    1 # Minimum number of seconds between simulation liveness messages (0 = always print)
-gpgpu_flush_l1_cache                    0 # Flush L1 cache at the end of each kernel call
-gpgpu_flush_l2_cache                    0 # Flush L2 cache at the end of each kernel call
-gpgpu_deadlock_detect                    1 # Stop the simulation at deadlock (1=on (default), 0=off)
-gpgpu_ptx_instruction_classification                    0 # if enabled will classify ptx instruction types per kernel (Max 255 kernels now)
-gpgpu_ptx_sim_mode                     0 # Select between Performance (default) or Functional simulation (1)
-gpgpu_clock_domains 700.0:700.0:700.0:924.0 # Clock Domain Frequencies in MhZ {<Core Clock>:<ICNT Clock>:<L2 Clock>:<DRAM Clock>}
-gpgpu_max_concurrent_kernel                    8 # maximum kernels that can run concurrently on GPU
-gpgpu_cflog_interval                    0 # Interval between each snapshot in control flow logger
-visualizer_enabled                     0 # Turn on visualizer output (1=On, 0=Off)
-visualizer_outputfile                 NULL # Specifies the output log file for visualizer
-visualizer_zlevel                      6 # Compression level of the visualizer output log (0=no comp, 9=highest)
-trace_enabled                          0 # Turn on traces
-trace_components                    none # comma seperated list of traces to enable. Complete list found in trace_streams.tup. Default none
-trace_sampling_core                    0 # The core which is printed using CORE_DPRINTF. Default 0
-trace_sampling_memory_partition                   -1 # The memory partition which is printed using MEMPART_DPRINTF. Default -1 (i.e. all)
-enable_ptx_file_line_stats                    1 # Turn on PTX source line statistic profiling. (1 = On)
-ptx_line_stats_filename gpgpu_inst_stats.txt # Output file for PTX source line statistics.
-save_embedded_ptx                      0 # saves ptx files embedded in binary as <n>.ptx
-keep                                   0 # keep intermediate files created by GPGPU-Sim when interfacing with external programs
-gpgpu_ptx_save_converted_ptxplus                    1 # Saved converted ptxplus to a file
-ptx_opcode_latency_int         4,13,4,5,145 # Opcode latencies for integers <ADD,MAX,MUL,MAD,DIV>Default 1,1,19,25,145
-ptx_opcode_latency_fp          4,13,4,5,39 # Opcode latencies for single precision floating points <ADD,MAX,MUL,MAD,DIV>Default 1,1,1,1,30
-ptx_opcode_latency_dp         8,19,8,8,330 # Opcode latencies for double precision floating points <ADD,MAX,MUL,MAD,DIV>Default 8,8,8,8,335
-ptx_opcode_initiation_int            1,2,2,1,8 # Opcode initiation intervals for integers <ADD,MAX,MUL,MAD,DIV>Default 1,1,4,4,32
-ptx_opcode_initiation_fp            1,2,1,1,4 # Opcode initiation intervals for single precision floating points <ADD,MAX,MUL,MAD,DIV>Default 1,1,1,1,5
-ptx_opcode_initiation_dp         8,16,8,8,130 # Opcode initiation intervals for double precision floating points <ADD,MAX,MUL,MAD,DIV>Default 8,8,8,8,130
DRAM Timing Options:
nbk                                    16 # number of banks
CCD                                     2 # column to column delay
RRD                                     6 # minimal delay between activation of rows in different banks
RCD                                    12 # row to column delay
RAS                                    28 # time needed to activate row
RP                                     12 # time needed to precharge (deactivate) row
RC                                     40 # row cycle time
CDLR                                    5 # switching from write to read (changes tWTR)
WR                                     12 # last data-in to row precharge
CL                                     12 # CAS latency
WL                                      4 # Write latency
nbkgrp                                  4 # number of bank groups
CCDL                                    3 # column to column delay between accesses to different bank groups
RTPL                                    2 # read to precharge delay between accesses to different bank groups
Total number of memory sub partition = 12
addr_dec_mask[CHIP]  = 0000000000000000 	high:64 low:0
addr_dec_mask[BK]    = 000000000000e100 	high:16 low:8
addr_dec_mask[ROW]   = 000000000fff0000 	high:28 low:16
addr_dec_mask[COL]   = 0000000000001eff 	high:13 low:0
addr_dec_mask[BURST] = 000000000000003f 	high:6 low:0
sub_partition_id_mask = 0000000000000100
GPGPU-Sim uArch: clock freqs: 700000000.000000:700000000.000000:700000000.000000:924000000.000000
GPGPU-Sim uArch: clock periods: 0.00000000142857142857:0.00000000142857142857:0.00000000142857142857:0.00000000108225108225
*** Initializing Memory Statistics ***
GPGPU-Sim uArch: interconnect node map (shaderID+MemID to icntID)
GPGPU-Sim uArch: Memory nodes ID start from index: 15
GPGPU-Sim uArch:    0   1   2   3   4
GPGPU-Sim uArch:    5   6   7   8   9
GPGPU-Sim uArch:   10  11  12  13  14
GPGPU-Sim uArch:   15  16  17  18  19
GPGPU-Sim uArch:   20  21  22  23  24
GPGPU-Sim uArch:   25  26
GPGPU-Sim uArch: interconnect node reverse map (icntID to shaderID+MemID)
GPGPU-Sim uArch: Memory nodes start from ID: 15
GPGPU-Sim uArch:    0   1   2   3   4
GPGPU-Sim uArch:    5   6   7   8   9
GPGPU-Sim uArch:   10  11  12  13  14
GPGPU-Sim uArch:   15  16  17  18  19
GPGPU-Sim uArch:   20  21  22  23  24
GPGPU-Sim uArch:   25  26
fd270b6bcb47c33350775a0b586ae3ac  /home/archit/Work/1_Benchmarks/rodinia_3.0/cuda/dwt2d/dwt2d
GPGPU-Sim uArch: performance model initialization complete.
GPGPU-Sim PTX: __cudaRegisterFatBinary, fat_cubin_handle = 1, filename=main.cu
self exe links to: /home/archit/Work/1_Benchmarks/rodinia_3.0/cuda/dwt2d/dwt2d
Running md5sum using "md5sum /home/archit/Work/1_Benchmarks/rodinia_3.0/cuda/dwt2d/dwt2d "
Running cuobjdump using "$CUDA_INSTALL_PATH/bin/cuobjdump -ptx -elf -sass /home/archit/Work/1_Benchmarks/rodinia_3.0/cuda/dwt2d/dwt2d > _cuobjdump_complete_output_7hUBB1"
Parsing file _cuobjdump_complete_output_7hUBB1
######### cuobjdump parser ########
## Adding new section PTX
Adding ptx filename: _cuobjdump_1.ptx
Adding arch: sm_10
Adding identifier: main.cu
## Adding new section ELF
Adding arch: sm_10
Adding identifier: main.cu
## Adding new section PTX
Adding ptx filename: _cuobjdump_2.ptx
Adding arch: sm_10
Adding identifier: dwt.cu
## Adding new section ELF
Adding arch: sm_10
Adding identifier: dwt.cu
## Adding new section PTX
Adding ptx filename: _cuobjdump_3.ptx
Adding arch: sm_10
Adding identifier: components.cu
## Adding new section ELF
Adding arch: sm_10
Adding identifier: components.cu
## Adding new section PTX
Adding ptx filename: _cuobjdump_4.ptx
Adding arch: sm_10
Adding identifier: dwt_cuda/fdwt53.cu
## Adding new section ELF
Adding arch: sm_10
Adding identifier: dwt_cuda/fdwt53.cu
## Adding new section PTX
Adding ptx filename: _cuobjdump_5.ptx
Adding arch: sm_10
Adding identifier: dwt_cuda/fdwt97.cu
## Adding new section ELF
Adding arch: sm_10
Adding identifier: dwt_cuda/fdwt97.cu
## Adding new section PTX
Adding ptx filename: _cuobjdump_6.ptx
Adding arch: sm_10
Adding identifier: dwt_cuda/common.cu
## Adding new section ELF
Adding arch: sm_10
Adding identifier: dwt_cuda/common.cu
## Adding new section PTX
Adding ptx filename: _cuobjdump_7.ptx
Adding arch: sm_10
Adding identifier: dwt_cuda/rdwt97.cu
## Adding new section ELF
Adding arch: sm_10
Adding identifier: dwt_cuda/rdwt97.cu
## Adding new section PTX
Adding ptx filename: _cuobjdump_8.ptx
Adding arch: sm_10
Adding identifier: dwt_cuda/rdwt53.cu
## Adding new section ELF
Adding arch: sm_10
Adding identifier: dwt_cuda/rdwt53.cu
Done parsing!!!
GPGPU-Sim: WARNING: Capability >= 20 are not supported in PTXPlus
	Setting forced_max_capability to 19
GPGPU-Sim PTX: __cudaRegisterFatBinary, fat_cubin_handle = 2, filename=dwt.cu
GPGPU-Sim PTX: __cudaRegisterFatBinary, fat_cubin_handle = 3, filename=components.cu
GPGPU-Sim PTX: __cudaRegisterFunction _Z20c_CopySrcToComponentIiEvPT_Phi : hostFun 0x0x404360, fat_cubin_handle = 3
GPGPU-Sim PTX: converting EMBEDDED .ptx file to ptxplus 
RUNNING cuobjdump_to_ptxplus ...
Parsing .elf file _cuobjdump_3.elf
()









Finished parsing .elf file _cuobjdump_3.elf
Parsing .ptx file _cuobjdump_3.ptx
Finished parsing .ptx file _cuobjdump_3.ptx
Parsing .sass file _cuobjdump_3.sass
Finished parsing .sass file _cuobjdump_3.sass
DONE. 
GPGPU-Sim PTX: calling cuobjdump_to_ptxplus
commandline: $GPGPUSIM_ROOT/build/$GPGPUSIM_CONFIG/cuobjdump_to_ptxplus/cuobjdump_to_ptxplus _cuobjdump_3.ptx _cuobjdump_3.sass _cuobjdump_3.elf _ptxplus_UZRCyk
GPGPU-Sim PTX: DONE converting EMBEDDED .ptx file to ptxplus 
GPGPU-Sim PTX: allocating constant region for "constant1_Z21c_CopySrcToComponentsIfEvPT_S1_S1_Phi" from 0x100 to 0x114 (global memory space) 1
GPGPU-Sim PTX: allocating constant region for "constant1_Z21c_CopySrcToComponentsIiEvPT_S1_S1_Phi" from 0x114 to 0x118 (global memory space) 2
GPGPU-Sim PTX: allocating constant region for "constant1_Z20c_CopySrcToComponentIfEvPT_Phi" from 0x180 to 0x194 (global memory space) 3
GPGPU-Sim PTX: allocating constant region for "constant1_Z20c_CopySrcToComponentIiEvPT_Phi" from 0x194 to 0x198 (global memory space) 4
GPGPU-Sim PTX: PTX uses two scalar type intruction with literal operand.
GPGPU-Sim PTX: instruction assembly for function '_Z20c_CopySrcToComponentIiEvPT_Phi'...   done.
GPGPU-Sim PTX: finding reconvergence points for '_Z20c_CopySrcToComponentIiEvPT_Phi'...
GPGPU-Sim PTX: Warning detected predicated return/exit.
GPGPU-Sim PTX: Finding dominators for '_Z20c_CopySrcToComponentIiEvPT_Phi'...
GPGPU-Sim PTX: Finding immediate dominators for '_Z20c_CopySrcToComponentIiEvPT_Phi'...
GPGPU-Sim PTX: Finding postdominators for '_Z20c_CopySrcToComponentIiEvPT_Phi'...
GPGPU-Sim PTX: Finding immediate postdominators for '_Z20c_CopySrcToComponentIiEvPT_Phi'...
GPGPU-Sim PTX: pre-decoding instructions for '_Z20c_CopySrcToComponentIiEvPT_Phi'...
GPGPU-Sim PTX: reconvergence points for _Z20c_CopySrcToComponentIiEvPT_Phi...
GPGPU-Sim PTX:  1 (potential) branch divergence @  PC=0x030 (_3.ptx:49) @$p0.ne bra l0x00000070;
GPGPU-Sim PTX:    immediate post dominator      @  PC=0x070 (_3.ptx:57) l0x00000070: nop;
GPGPU-Sim PTX: ... end of reconvergence points for _Z20c_CopySrcToComponentIiEvPT_Phi
GPGPU-Sim PTX: ... done pre-decoding instructions for '_Z20c_CopySrcToComponentIiEvPT_Phi'.
GPGPU-Sim PTX: instruction assembly for function '_Z20c_CopySrcToComponentIfEvPT_Phi'...   done.
GPGPU-Sim PTX: finding reconvergence points for '_Z20c_CopySrcToComponentIfEvPT_Phi'...
GPGPU-Sim PTX: Warning detected predicated return/exit.
GPGPU-Sim PTX: Finding dominators for '_Z20c_CopySrcToComponentIfEvPT_Phi'...
GPGPU-Sim PTX: Finding immediate dominators for '_Z20c_CopySrcToComponentIfEvPT_Phi'...
GPGPU-Sim PTX: Finding postdominators for '_Z20c_CopySrcToComponentIfEvPT_Phi'...
GPGPU-Sim PTX: Finding immediate postdominators for '_Z20c_CopySrcToComponentIfEvPT_Phi'...
GPGPU-Sim PTX: pre-decoding instructions for '_Z20c_CopySrcToComponentIfEvPT_Phi'...
GPGPU-Sim PTX: reconvergence points for _Z20c_CopySrcToComponentIfEvPT_Phi...
GPGPU-Sim PTX:  1 (potential) branch divergence @  PC=0x108 (_3.ptx:91) @$p0.ne bra l0x00000070;
GPGPU-Sim PTX:    immediate post dominator      @  PC=0x148 (_3.ptx:99) l0x00000070: nop;
GPGPU-Sim PTX: ... end of reconvergence points for _Z20c_CopySrcToComponentIfEvPT_Phi
GPGPU-Sim PTX: ... done pre-decoding instructions for '_Z20c_CopySrcToComponentIfEvPT_Phi'.
GPGPU-Sim PTX: instruction assembly for function '_Z21c_CopySrcToComponentsIiEvPT_S1_S1_Phi'...   done.
GPGPU-Sim PTX: finding reconvergence points for '_Z21c_CopySrcToComponentsIiEvPT_S1_S1_Phi'...
GPGPU-Sim PTX: Warning detected predicated return/exit.
GPGPU-Sim PTX: Finding dominators for '_Z21c_CopySrcToComponentsIiEvPT_S1_S1_Phi'...
GPGPU-Sim PTX: Finding immediate dominators for '_Z21c_CopySrcToComponentsIiEvPT_S1_S1_Phi'...
GPGPU-Sim PTX: Finding postdominators for '_Z21c_CopySrcToComponentsIiEvPT_S1_S1_Phi'...
GPGPU-Sim PTX: Finding immediate postdominators for '_Z21c_CopySrcToComponentsIiEvPT_S1_S1_Phi'...
GPGPU-Sim PTX: pre-decoding instructions for '_Z21c_CopySrcToComponentsIiEvPT_S1_S1_Phi'...
GPGPU-Sim PTX: reconvergence points for _Z21c_CopySrcToComponentsIiEvPT_S1_S1_Phi...
GPGPU-Sim PTX:  1 (potential) branch divergence @  PC=0x210 (_3.ptx:141) @$p0.ne bra l0x00000080;
GPGPU-Sim PTX:    immediate post dominator      @  PC=0x260 (_3.ptx:151) l0x00000080: nop;
GPGPU-Sim PTX: ... end of reconvergence points for _Z21c_CopySrcToComponentsIiEvPT_S1_S1_Phi
GPGPU-Sim PTX: ... done pre-decoding instructions for '_Z21c_CopySrcToComponentsIiEvPT_S1_S1_Phi'.
GPGPU-Sim PTX: instruction assembly for function '_Z21c_CopySrcToComponentsIfEvPT_S1_S1_Phi'...   done.
GPGPU-Sim PTX: finding reconvergence points for '_Z21c_CopySrcToComponentsIfEvPT_S1_S1_Phi'...
GPGPU-Sim PTX: Warning detected predicated return/exit.
GPGPU-Sim PTX: Finding dominators for '_Z21c_CopySrcToComponentsIfEvPT_S1_S1_Phi'...
GPGPU-Sim PTX: Finding immediate dominators for '_Z21c_CopySrcToComponentsIfEvPT_S1_S1_Phi'...
GPGPU-Sim PTX: Finding postdominators for '_Z21c_CopySrcToComponentsIfEvPT_S1_S1_Phi'...
GPGPU-Sim PTX: Finding immediate postdominators for '_Z21c_CopySrcToComponentsIfEvPT_S1_S1_Phi'...
GPGPU-Sim PTX: pre-decoding instructions for '_Z21c_CopySrcToComponentsIfEvPT_S1_S1_Phi'...
GPGPU-Sim PTX: reconvergence points for _Z21c_CopySrcToComponentsIfEvPT_S1_S1_Phi...
GPGPU-Sim PTX:  1 (potential) branch divergence @  PC=0x340 (_3.ptx:196) @$p0.ne bra l0x00000080;
GPGPU-Sim PTX:    immediate post dominator      @  PC=0x390 (_3.ptx:206) l0x00000080: nop;
GPGPU-Sim PTX: ... end of reconvergence points for _Z21c_CopySrcToComponentsIfEvPT_S1_S1_Phi
GPGPU-Sim PTX: ... done pre-decoding instructions for '_Z21c_CopySrcToComponentsIfEvPT_S1_S1_Phi'.
GPGPU-Sim PTX: finished parsing EMBEDDED .ptx file _3.ptx
Adding _cuobjdump_3.ptx with cubin handle 3
GPGPU-Sim PTX: extracting embedded .ptx to temporary file "_ptx_qcFHxD"
Running: cat _ptx_qcFHxD | sed 's/.version 1.5/.version 1.4/' | sed 's/, texmode_independent//' | sed 's/\(\.extern \.const\[1\] .b8 \w\+\)\[\]/\1\[1\]/' | sed 's/const\[.\]/const\[0\]/g' > _ptx2_wzJNwW
GPGPU-Sim PTX: generating ptxinfo using "$CUDA_INSTALL_PATH/bin/ptxas --gpu-name=sm_20 -v _ptx2_wzJNwW --output-file  /dev/null 2> _ptx_qcFHxDinfo"
GPGPU-Sim PTX: Kernel '_Z20c_CopySrcToComponentIiEvPT_Phi' : regs=8, lmem=0, smem=256, cmem=52
GPGPU-Sim PTX: Kernel '_Z20c_CopySrcToComponentIfEvPT_Phi' : regs=8, lmem=0, smem=256, cmem=56
GPGPU-Sim PTX: Kernel '_Z21c_CopySrcToComponentsIiEvPT_S1_S1_Phi' : regs=11, lmem=0, smem=768, cmem=68
GPGPU-Sim PTX: Kernel '_Z21c_CopySrcToComponentsIfEvPT_S1_S1_Phi' : regs=11, lmem=0, smem=768, cmem=72
GPGPU-Sim PTX: removing ptxinfo using "rm -f _ptx_qcFHxD _ptx2_wzJNwW _ptx_qcFHxDinfo"
GPGPU-Sim PTX: loading globals with explicit initializers... 
GPGPU-Sim PTX: finished loading globals (0 bytes total).
GPGPU-Sim PTX: loading constants with explicit initializers...  done.
GPGPU-Sim PTX: __cudaRegisterFunction _Z20c_CopySrcToComponentIfEvPT_Phi : hostFun 0x0x4043e0, fat_cubin_handle = 3
GPGPU-Sim PTX: __cudaRegisterFunction _Z21c_CopySrcToComponentsIiEvPT_S1_S1_Phi : hostFun 0x0x404460, fat_cubin_handle = 3
GPGPU-Sim PTX: __cudaRegisterFunction _Z21c_CopySrcToComponentsIfEvPT_S1_S1_Phi : hostFun 0x0x404470, fat_cubin_handle = 3
GPGPU-Sim PTX: __cudaRegisterFatBinary, fat_cubin_handle = 4, filename=dwt_cuda/fdwt53.cu
GPGPU-Sim PTX: __cudaRegisterFunction _ZN8dwt_cuda12fdwt53KernelILi64ELi8EEEvPKiPiiii : hostFun 0x0x4051f0, fat_cubin_handle = 4
GPGPU-Sim PTX: converting EMBEDDED .ptx file to ptxplus 
RUNNING cuobjdump_to_ptxplus ...
Parsing .elf file _cuobjdump_4.elf
()





Finished parsing .elf file _cuobjdump_4.elf
Parsing .ptx file _cuobjdump_4.ptx
GPGPU-Sim: Warning: .maxnctapersm ignored. 
GPGPU-Sim: Warning: .maxnctapersm ignored. 
GPGPU-Sim: Warning: .maxnctapersm ignored. 
Finished parsing .ptx file _cuobjdump_4.ptx
Parsing .sass file _cuobjdump_4.sass
Finished parsing .sass file _cuobjdump_4.sass
DONE. 
GPGPU-Sim PTX: calling cuobjdump_to_ptxplus
commandline: $GPGPUSIM_ROOT/build/$GPGPUSIM_CONFIG/cuobjdump_to_ptxplus/cuobjdump_to_ptxplus _cuobjdump_4.ptx _cuobjdump_4.sass _cuobjdump_4.elf _ptxplus_wV6CCf
GPGPU-Sim PTX: DONE converting EMBEDDED .ptx file to ptxplus 
GPGPU-Sim PTX: allocating constant region for "constant1_ZN8dwt_cuda12fdwt53KernelILi192ELi8EEEvPKiPiiii" from 0x200 to 0x21c (global memory space) 5
GPGPU-Sim PTX: allocating constant region for "constant1_ZN8dwt_cuda12fdwt53KernelILi128ELi8EEEvPKiPiiii" from 0x220 to 0x240 (global memory space) 6
GPGPU-Sim PTX: allocating constant region for "constant1_ZN8dwt_cuda12fdwt53KernelILi64ELi8EEEvPKiPiiii" from 0x240 to 0x260 (global memory space) 7
GPGPU-Sim PTX: allocating stack frame region for .local "l1" from 0x0 to 0x0
GPGPU-Sim PTX: instruction assembly for function '_ZN8dwt_cuda12fdwt53KernelILi64ELi8EEEvPKiPiiii'...   done.
GPGPU-Sim PTX: finding reconvergence points for '_ZN8dwt_cuda12fdwt53KernelILi64ELi8EEEvPKiPiiii'...
GPGPU-Sim PTX: Warning detected predicated return/exit.
GPGPU-Sim PTX: Warning detected predicated return/exit.
GPGPU-Sim PTX: Warning detected predicated return/exit.
GPGPU-Sim PTX: Finding dominators for '_ZN8dwt_cuda12fdwt53KernelILi64ELi8EEEvPKiPiiii'...
GPGPU-Sim PTX: Finding immediate dominators for '_ZN8dwt_cuda12fdwt53KernelILi64ELi8EEEvPKiPiiii'...
GPGPU-Sim PTX: Finding postdominators for '_ZN8dwt_cuda12fdwt53KernelILi64ELi8EEEvPKiPiiii'...
GPGPU-Sim PTX: Finding immediate postdominators for '_ZN8dwt_cuda12fdwt53KernelILi64ELi8EEEvPKiPiiii'...
GPGPU-Sim PTX: pre-decoding instructions for '_ZN8dwt_cuda12fdwt53KernelILi64ELi8EEEvPKiPiiii'...
GPGPU-Sim PTX: reconvergence points for _ZN8dwt_cuda12fdwt53KernelILi64ELi8EEEvPKiPiiii...
GPGPU-Sim PTX:  1 (potential) branch divergence @  PC=0x5b8 (_4.ptx:74) @$p3.ne bra l0x00001d58;
GPGPU-Sim PTX:    immediate post dominator      @ 
GPGPU-Sim PTX:  2 (potential) branch divergence @  PC=0x5e8 (_4.ptx:81) @$p1.eq bra l0x000002d0;
GPGPU-Sim PTX:    immediate post dominator      @  PC=0x8f0 (_4.ptx:185) l0x00000410: ssy 0x000007f0;
GPGPU-Sim PTX:  3 (potential) branch divergence @  PC=0x5f8 (_4.ptx:83) @$p2.eq bra l0x00000140;
GPGPU-Sim PTX:    immediate post dominator      @  PC=0x638 (_4.ptx:91) l0x00000158: mov.u32 $r8, s[0x0020];
GPGPU-Sim PTX:  4 (potential) branch divergence @  PC=0x618 (_4.ptx:87) bra l0x00000158;
GPGPU-Sim PTX:    immediate post dominator      @  PC=0x638 (_4.ptx:91) l0x00000158: mov.u32 $r8, s[0x0020];
GPGPU-Sim PTX:  5 (potential) branch divergence @  PC=0x720 (_4.ptx:123) @$p2.eq bra l0x00000268;
GPGPU-Sim PTX:    immediate post dominator      @  PC=0x760 (_4.ptx:131) l0x00000280: nop;
GPGPU-Sim PTX:  6 (potential) branch divergence @  PC=0x740 (_4.ptx:127) bra l0x00000280;
GPGPU-Sim PTX:    immediate post dominator      @  PC=0x760 (_4.ptx:131) l0x00000280: nop;
GPGPU-Sim PTX:  7 (potential) branch divergence @  PC=0x7a8 (_4.ptx:142) bra l0x00000410;
GPGPU-Sim PTX:    immediate post dominator      @  PC=0x8f0 (_4.ptx:185) l0x00000410: ssy 0x000007f0;
GPGPU-Sim PTX:  8 (potential) branch divergence @  PC=0x7b8 (_4.ptx:144) @$p2.eq bra l0x00000300;
GPGPU-Sim PTX:    immediate post dominator      @  PC=0x7f8 (_4.ptx:152) l0x00000318: mov.u32 $r8, s[0x0020];
GPGPU-Sim PTX:  9 (potential) branch divergence @  PC=0x7d8 (_4.ptx:148) bra l0x00000318;
GPGPU-Sim PTX:    immediate post dominator      @  PC=0x7f8 (_4.ptx:152) l0x00000318: mov.u32 $r8, s[0x0020];
GPGPU-Sim PTX: 10 (potential) branch divergence @  PC=0x8f8 (_4.ptx:186) @$p0.eq bra l0x000007b0;
GPGPU-Sim PTX:    immediate post dominator      @  PC=0xcd0 (_4.ptx:317) l0x000007f0: nop;
GPGPU-Sim PTX: 11 (potential) branch divergence @  PC=0x980 (_4.ptx:204) @$p1.eq bra l0x00000668;
GPGPU-Sim PTX:    immediate post dominator      @  PC=0xcd0 (_4.ptx:317) l0x000007f0: nop;
GPGPU-Sim PTX: 12 (potential) branch divergence @  PC=0x990 (_4.ptx:206) @$p2.eq bra l0x000004d8;
GPGPU-Sim PTX:    immediate post dominator      @  PC=0x9d0 (_4.ptx:214) l0x000004f0: mov.u32 $r8, s[0x0020];
GPGPU-Sim PTX: 13 (potential) branch divergence @  PC=0x9b0 (_4.ptx:210) bra l0x000004f0;
GPGPU-Sim PTX:    immediate post dominator      @  PC=0x9d0 (_4.ptx:214) l0x000004f0: mov.u32 $r8, s[0x0020];
GPGPU-Sim PTX: 14 (potential) branch divergence @  PC=0xab8 (_4.ptx:246) @$p2.eq bra l0x00000600;
GPGPU-Sim PTX:    immediate post dominator      @  PC=0xaf8 (_4.ptx:254) l0x00000618: nop;
GPGPU-Sim PTX: 15 (potential) branch divergence @  PC=0xad8 (_4.ptx:250) bra l0x00000618;
GPGPU-Sim PTX:    immediate post dominator      @  PC=0xaf8 (_4.ptx:254) l0x00000618: nop;
GPGPU-Sim PTX: 16 (potential) branch divergence @  PC=0xb40 (_4.ptx:265) bra l0x000007f0;
GPGPU-Sim PTX:    immediate post dominator      @  PC=0xcd0 (_4.ptx:317) l0x000007f0: nop;
GPGPU-Sim PTX: 17 (potential) branch divergence @  PC=0xb50 (_4.ptx:267) @$p2.eq bra l0x00000698;
GPGPU-Sim PTX:    immediate post dominator      @  PC=0xb90 (_4.ptx:275) l0x000006b0: mov.u32 $r14, s[0x0020];
GPGPU-Sim PTX: 18 (potential) branch divergence @  PC=0xb70 (_4.ptx:271) bra l0x000006b0;
GPGPU-Sim PTX:    immediate post dominator      @  PC=0xb90 (_4.ptx:275) l0x000006b0: mov.u32 $r14, s[0x0020];
GPGPU-Sim PTX: 19 (potential) branch divergence @  PC=0xc88 (_4.ptx:308) bra l0x000007f0;
GPGPU-Sim PTX:    immediate post dominator      @  PC=0xcd0 (_4.ptx:317) l0x000007f0: nop;
GPGPU-Sim PTX: 20 (potential) branch divergence @  PC=0xce8 (_4.ptx:320) @$p3.eq bra l0x00000a50;
GPGPU-Sim PTX:    immediate post dominator      @  PC=0xf50 (_4.ptx:399) l0x00000a70: set.gt.s32.s32 $p1/$o127, s[0x0028], $r124;
GPGPU-Sim PTX: 21 (potential) branch divergence @  PC=0xd78 (_4.ptx:338) @$p2.eq bra l0x00000938;
GPGPU-Sim PTX:    immediate post dominator      @  PC=0xe60 (_4.ptx:367) l0x00000980: mul.wide.u16 $r1, $r15.lo, $r0.hi;
GPGPU-Sim PTX: 22 (potential) branch divergence @  PC=0xe10 (_4.ptx:357) bra l0x00000980;
GPGPU-Sim PTX:    immediate post dominator      @  PC=0xe60 (_4.ptx:367) l0x00000980: mul.wide.u16 $r1, $r15.lo, $r0.hi;
GPGPU-Sim PTX: 23 (potential) branch divergence @  PC=0xf28 (_4.ptx:394) bra l0x00000a70;
GPGPU-Sim PTX:    immediate post dominator      @  PC=0xf50 (_4.ptx:399) l0x00000a70: set.gt.s32.s32 $p1/$o127, s[0x0028], $r124;
GPGPU-Sim PTX: 24 (potential) branch divergence @  PC=0x1520 (_4.ptx:588) @$p0.eq bra l0x000015d0;
GPGPU-Sim PTX:    immediate post dominator      @  PC=0x1ab0 (_4.ptx:768) l0x000015d0: nop;
GPGPU-Sim PTX: 25 (potential) branch divergence @  PC=0x1be8 (_4.ptx:811) @$p1.eq bra l0x00001758;
GPGPU-Sim PTX:    immediate post dominator      @  PC=0x1c38 (_4.ptx:822) l0x00001758: nop;
GPGPU-Sim PTX: 26 (potential) branch divergence @  PC=0x1d90 (_4.ptx:869) @$p1.eq bra l0x00001908;
GPGPU-Sim PTX:    immediate post dominator      @  PC=0x1de8 (_4.ptx:881) l0x00001908: nop;
GPGPU-Sim PTX: 27 (potential) branch divergence @  PC=0x1e10 (_4.ptx:886) @$p3.eq bra l0x000019e8;
GPGPU-Sim PTX:    immediate post dominator      @  PC=0x1ec8 (_4.ptx:910) l0x000019e8: nop;
GPGPU-Sim PTX: 28 (potential) branch divergence @  PC=0x1ed8 (_4.ptx:912) @$p2.eq bra l0x00001d18;
GPGPU-Sim PTX:    immediate post dominator      @  PC=0x21f8 (_4.ptx:1019) l0x00001d18: nop;
GPGPU-Sim PTX: 29 (potential) branch divergence @  PC=0x1f90 (_4.ptx:936) @$p2.eq bra l0x00001d18;
GPGPU-Sim PTX:    immediate post dominator      @  PC=0x21f8 (_4.ptx:1019) l0x00001d18: nop;
GPGPU-Sim PTX: 30 (potential) branch divergence @  PC=0x1fd0 (_4.ptx:945) @$p2.eq bra l0x00001d18;
GPGPU-Sim PTX:    immediate post dominator      @  PC=0x21f8 (_4.ptx:1019) l0x00001d18: nop;
GPGPU-Sim PTX: 31 (potential) branch divergence @  PC=0x2010 (_4.ptx:954) @$p2.eq bra l0x00001d18;
GPGPU-Sim PTX:    immediate post dominator      @  PC=0x21f8 (_4.ptx:1019) l0x00001d18: nop;
GPGPU-Sim PTX: 32 (potential) branch divergence @  PC=0x20c8 (_4.ptx:978) @$p2.eq bra l0x00001d18;
GPGPU-Sim PTX:    immediate post dominator      @  PC=0x21f8 (_4.ptx:1019) l0x00001d18: nop;
GPGPU-Sim PTX: 33 (potential) branch divergence @  PC=0x2108 (_4.ptx:987) @$p2.eq bra l0x00001d18;
GPGPU-Sim PTX:    immediate post dominator      @  PC=0x21f8 (_4.ptx:1019) l0x00001d18: nop;
GPGPU-Sim PTX: 34 (potential) branch divergence @  PC=0x2148 (_4.ptx:996) @$p2.eq bra l0x00001d18;
GPGPU-Sim PTX:    immediate post dominator      @  PC=0x21f8 (_4.ptx:1019) l0x00001d18: nop;
GPGPU-Sim PTX: 35 (potential) branch divergence @  PC=0x2228 (_4.ptx:1025) @$p2.ne bra l0x00000b08;
GPGPU-Sim PTX:    immediate post dominator      @  PC=0x2230 (_4.ptx:1026) retp;
GPGPU-Sim PTX: 36 (potential) branch divergence @  PC=0x2250 (_4.ptx:1030) @$p3.ne bra l0x00003408;
GPGPU-Sim PTX:    immediate post dominator      @ 
GPGPU-Sim PTX: 37 (potential) branch divergence @  PC=0x2258 (_4.ptx:1031) @$p1.eq bra l0x00001ee0;
GPGPU-Sim PTX:    immediate post dominator      @  PC=0x2498 (_4.ptx:1106) l0x00001fb8: ssy 0x000022b8;
GPGPU-Sim PTX: 38 (potential) branch divergence @  PC=0x2268 (_4.ptx:1033) @$p2.eq bra l0x00001db0;
GPGPU-Sim PTX:    immediate post dominator      @  PC=0x22a8 (_4.ptx:1041) l0x00001dc8: mov.u32 $r7, s[0x0020];
GPGPU-Sim PTX: 39 (potential) branch divergence @  PC=0x2288 (_4.ptx:1037) bra l0x00001dc8;
GPGPU-Sim PTX:    immediate post dominator      @  PC=0x22a8 (_4.ptx:1041) l0x00001dc8: mov.u32 $r7, s[0x0020];
GPGPU-Sim PTX: 40 (potential) branch divergence @  PC=0x2338 (_4.ptx:1060) @$p2.eq bra l0x00001e80;
GPGPU-Sim PTX:    immediate post dominator      @  PC=0x2378 (_4.ptx:1068) l0x00001e98: nop;
GPGPU-Sim PTX: 41 (potential) branch divergence @  PC=0x2358 (_4.ptx:1064) bra l0x00001e98;
GPGPU-Sim PTX:    immediate post dominator      @  PC=0x2378 (_4.ptx:1068) l0x00001e98: nop;
GPGPU-Sim PTX: 42 (potential) branch divergence @  PC=0x23b8 (_4.ptx:1077) bra l0x00001fb8;
GPGPU-Sim PTX:    immediate post dominator      @  PC=0x2498 (_4.ptx:1106) l0x00001fb8: ssy 0x000022b8;
GPGPU-Sim PTX: 43 (potential) branch divergence @  PC=0x23c8 (_4.ptx:1079) @$p2.eq bra l0x00001f10;
GPGPU-Sim PTX:    immediate post dominator      @  PC=0x2408 (_4.ptx:1087) l0x00001f28: mov.u32 $r7, s[0x0020];
GPGPU-Sim PTX: 44 (potential) branch divergence @  PC=0x23e8 (_4.ptx:1083) bra l0x00001f28;
GPGPU-Sim PTX:    immediate post dominator      @  PC=0x2408 (_4.ptx:1087) l0x00001f28: mov.u32 $r7, s[0x0020];
GPGPU-Sim PTX: 45 (potential) branch divergence @  PC=0x24a0 (_4.ptx:1107) @$p0.eq bra l0x00002288;
GPGPU-Sim PTX:    immediate post dominator      @  PC=0x2798 (_4.ptx:1206) l0x000022b8: nop;
GPGPU-Sim PTX: 46 (potential) branch divergence @  PC=0x2528 (_4.ptx:1125) @$p1.eq bra l0x000021a8;
GPGPU-Sim PTX:    immediate post dominator      @  PC=0x2758 (_4.ptx:1198) l0x00002278: mov.u32 $r8, s[0x0020];
GPGPU-Sim PTX: 47 (potential) branch divergence @  PC=0x2538 (_4.ptx:1127) @$p2.eq bra l0x00002080;
GPGPU-Sim PTX:    immediate post dominator      @  PC=0x2578 (_4.ptx:1135) l0x00002098: mov.u32 $r7, s[0x0020];
GPGPU-Sim PTX: 48 (potential) branch divergence @  PC=0x2558 (_4.ptx:1131) bra l0x00002098;
GPGPU-Sim PTX:    immediate post dominator      @  PC=0x2578 (_4.ptx:1135) l0x00002098: mov.u32 $r7, s[0x0020];
GPGPU-Sim PTX: 49 (potential) branch divergence @  PC=0x2600 (_4.ptx:1153) @$p2.eq bra l0x00002148;
GPGPU-Sim PTX:    immediate post dominator      @  PC=0x2640 (_4.ptx:1161) l0x00002160: nop;
GPGPU-Sim PTX: 50 (potential) branch divergence @  PC=0x2620 (_4.ptx:1157) bra l0x00002160;
GPGPU-Sim PTX:    immediate post dominator      @  PC=0x2640 (_4.ptx:1161) l0x00002160: nop;
GPGPU-Sim PTX: 51 (potential) branch divergence @  PC=0x2680 (_4.ptx:1170) bra l0x00002278;
GPGPU-Sim PTX:    immediate post dominator      @  PC=0x2758 (_4.ptx:1198) l0x00002278: mov.u32 $r8, s[0x0020];
GPGPU-Sim PTX: 52 (potential) branch divergence @  PC=0x2690 (_4.ptx:1172) @$p2.eq bra l0x000021d8;
GPGPU-Sim PTX:    immediate post dominator      @  PC=0x26d0 (_4.ptx:1180) l0x000021f0: mov.u32 $r7, s[0x0020];
GPGPU-Sim PTX: 53 (potential) branch divergence @  PC=0x26b0 (_4.ptx:1176) bra l0x000021f0;
GPGPU-Sim PTX:    immediate post dominator      @  PC=0x26d0 (_4.ptx:1180) l0x000021f0: mov.u32 $r7, s[0x0020];
GPGPU-Sim PTX: 54 (potential) branch divergence @  PC=0x2760 (_4.ptx:1199) bra l0x000022b8;
GPGPU-Sim PTX:    immediate post dominator      @  PC=0x2798 (_4.ptx:1206) l0x000022b8: nop;
GPGPU-Sim PTX: 55 (potential) branch divergence @  PC=0x27b0 (_4.ptx:1209) @$p3.eq bra l0x00002528;
GPGPU-Sim PTX:    immediate post dominator      @  PC=0x2a28 (_4.ptx:1294) l0x00002548: set.gt.s32.s32 $p1/$o127, s[0x0028], $r124;
GPGPU-Sim PTX: 56 (potential) branch divergence @  PC=0x2840 (_4.ptx:1227) @$p2.eq bra l0x00002420;
GPGPU-Sim PTX:    immediate post dominator      @  PC=0x2948 (_4.ptx:1262) l0x00002468: and.b32 $r17, s[0x0024], constant1_ZN8dwt_cuda12fdwt53KernelILi64ELi8EEEvPKiPiiii[0x0008];
GPGPU-Sim PTX: 57 (potential) branch divergence @  PC=0x28f8 (_4.ptx:1252) bra l0x00002468;
GPGPU-Sim PTX:    immediate post dominator      @  PC=0x2948 (_4.ptx:1262) l0x00002468: and.b32 $r17, s[0x0024], constant1_ZN8dwt_cuda12fdwt53KernelILi64ELi8EEEvPKiPiiii[0x0008];
GPGPU-Sim PTX: 58 (potential) branch divergence @  PC=0x2a00 (_4.ptx:1289) bra l0x00002548;
GPGPU-Sim PTX:    immediate post dominator      @  PC=0x2a28 (_4.ptx:1294) l0x00002548: set.gt.s32.s32 $p1/$o127, s[0x0028], $r124;
GPGPU-Sim PTX: 59 (potential) branch divergence @  PC=0x2e10 (_4.ptx:1425) @$p0.eq bra l0x00002cf8;
GPGPU-Sim PTX:    immediate post dominator      @  PC=0x31d8 (_4.ptx:1552) l0x00002cf8: nop;
GPGPU-Sim PTX: 60 (potential) branch divergence @  PC=0x3310 (_4.ptx:1595) @$p1.eq bra l0x00002e80;
GPGPU-Sim PTX:    immediate post dominator      @  PC=0x3360 (_4.ptx:1606) l0x00002e80: nop;
GPGPU-Sim PTX: 61 (potential) branch divergence @  PC=0x34b8 (_4.ptx:1653) @$p1.eq bra l0x00003030;
GPGPU-Sim PTX:    immediate post dominator      @  PC=0x3510 (_4.ptx:1665) l0x00003030: nop;
GPGPU-Sim PTX: 62 (potential) branch divergence @  PC=0x3538 (_4.ptx:1670) @$p3.eq bra l0x00003110;
GPGPU-Sim PTX:    immediate post dominator      @  PC=0x35f0 (_4.ptx:1694) l0x00003110: nop;
GPGPU-Sim PTX: 63 (potential) branch divergence @  PC=0x3600 (_4.ptx:1696) @$p2.eq bra l0x000033c8;
GPGPU-Sim PTX:    immediate post dominator      @  PC=0x38a8 (_4.ptx:1788) l0x000033c8: nop;
GPGPU-Sim PTX: 64 (potential) branch divergence @  PC=0x36b8 (_4.ptx:1720) @$p2.eq bra l0x000033c8;
GPGPU-Sim PTX:    immediate post dominator      @  PC=0x38a8 (_4.ptx:1788) l0x000033c8: nop;
GPGPU-Sim PTX: 65 (potential) branch divergence @  PC=0x36f8 (_4.ptx:1729) @$p2.eq bra l0x000033c8;
GPGPU-Sim PTX:    immediate post dominator      @  PC=0x38a8 (_4.ptx:1788) l0x000033c8: nop;
GPGPU-Sim PTX: 66 (potential) branch divergence @  PC=0x3738 (_4.ptx:1738) @$p2.eq bra l0x000033c8;
GPGPU-Sim PTX:    immediate post dominator      @  PC=0x38a8 (_4.ptx:1788) l0x000033c8: nop;
GPGPU-Sim PTX: 67 (potential) branch divergence @  PC=0x3778 (_4.ptx:1747) @$p2.eq bra l0x000033c8;
GPGPU-Sim PTX:    immediate post dominator      @  PC=0x38a8 (_4.ptx:1788) l0x000033c8: nop;
GPGPU-Sim PTX: 68 (potential) branch divergence @  PC=0x37b8 (_4.ptx:1756) @$p2.eq bra l0x000033c8;
GPGPU-Sim PTX:    immediate post dominator      @  PC=0x38a8 (_4.ptx:1788) l0x000033c8: nop;
GPGPU-Sim PTX: 69 (potential) branch divergence @  PC=0x37f8 (_4.ptx:1765) @$p2.eq bra l0x000033c8;
GPGPU-Sim PTX:    immediate post dominator      @  PC=0x38a8 (_4.ptx:1788) l0x000033c8: nop;
GPGPU-Sim PTX: 70 (potential) branch divergence @  PC=0x38d8 (_4.ptx:1794) @$p2.ne bra l0x000025f0;
GPGPU-Sim PTX:    immediate post dominator      @  PC=0x38e0 (_4.ptx:1795) retp;
GPGPU-Sim PTX: 71 (potential) branch divergence @  PC=0x38e8 (_4.ptx:1796) l0x00003408: @$p1.eq bra l0x00003568;
GPGPU-Sim PTX:    immediate post dominator      @  PC=0x3b18 (_4.ptx:1869) l0x00003638: ssy 0x00003938;
GPGPU-Sim PTX: 72 (potential) branch divergence @  PC=0x38f8 (_4.ptx:1798) @$p2.eq bra l0x00003440;
GPGPU-Sim PTX:    immediate post dominator      @  PC=0x3938 (_4.ptx:1806) l0x00003458: mov.u32 $r7, s[0x0020];
GPGPU-Sim PTX: 73 (potential) branch divergence @  PC=0x3918 (_4.ptx:1802) bra l0x00003458;
GPGPU-Sim PTX:    immediate post dominator      @  PC=0x3938 (_4.ptx:1806) l0x00003458: mov.u32 $r7, s[0x0020];
GPGPU-Sim PTX: 74 (potential) branch divergence @  PC=0x39c0 (_4.ptx:1824) @$p2.eq bra l0x00003508;
GPGPU-Sim PTX:    immediate post dominator      @  PC=0x3a00 (_4.ptx:1832) l0x00003520: nop;
GPGPU-Sim PTX: 75 (potential) branch divergence @  PC=0x39e0 (_4.ptx:1828) bra l0x00003520;
GPGPU-Sim PTX:    immediate post dominator      @  PC=0x3a00 (_4.ptx:1832) l0x00003520: nop;
GPGPU-Sim PTX: 76 (potential) branch divergence @  PC=0x3a40 (_4.ptx:1841) bra l0x00003638;
GPGPU-Sim PTX:    immediate post dominator      @  PC=0x3b18 (_4.ptx:1869) l0x00003638: ssy 0x00003938;
GPGPU-Sim PTX: 77 (potential) branch divergence @  PC=0x3a50 (_4.ptx:1843) @$p2.eq bra l0x00003598;
GPGPU-Sim PTX:    immediate post dominator      @  PC=0x3a90 (_4.ptx:1851) l0x000035b0: mov.u32 $r7, s[0x0020];
GPGPU-Sim PTX: 78 (potential) branch divergence @  PC=0x3a70 (_4.ptx:1847) bra l0x000035b0;
GPGPU-Sim PTX:    immediate post dominator      @  PC=0x3a90 (_4.ptx:1851) l0x000035b0: mov.u32 $r7, s[0x0020];
GPGPU-Sim PTX: 79 (potential) branch divergence @  PC=0x3b20 (_4.ptx:1870) @$p0.eq bra l0x00003908;
GPGPU-Sim PTX:    immediate post dominator      @  PC=0x3e18 (_4.ptx:1969) l0x00003938: nop;
GPGPU-Sim PTX: 80 (potential) branch divergence @  PC=0x3ba8 (_4.ptx:1888) @$p1.eq bra l0x00003828;
GPGPU-Sim PTX:    immediate post dominator      @  PC=0x3dd8 (_4.ptx:1961) l0x000038f8: mov.u32 $r6, s[0x0020];
GPGPU-Sim PTX: 81 (potential) branch divergence @  PC=0x3bb8 (_4.ptx:1890) @$p2.eq bra l0x00003700;
GPGPU-Sim PTX:    immediate post dominator      @  PC=0x3bf8 (_4.ptx:1898) l0x00003718: mov.u32 $r11, s[0x0020];
GPGPU-Sim PTX: 82 (potential) branch divergence @  PC=0x3bd8 (_4.ptx:1894) bra l0x00003718;
GPGPU-Sim PTX:    immediate post dominator      @  PC=0x3bf8 (_4.ptx:1898) l0x00003718: mov.u32 $r11, s[0x0020];
GPGPU-Sim PTX: 83 (potential) branch divergence @  PC=0x3c80 (_4.ptx:1916) @$p2.eq bra l0x000037c8;
GPGPU-Sim PTX:    immediate post dominator      @  PC=0x3cc0 (_4.ptx:1924) l0x000037e0: nop;
GPGPU-Sim PTX: 84 (potential) branch divergence @  PC=0x3ca0 (_4.ptx:1920) bra l0x000037e0;
GPGPU-Sim PTX:    immediate post dominator      @  PC=0x3cc0 (_4.ptx:1924) l0x000037e0: nop;
GPGPU-Sim PTX: 85 (potential) branch divergence @  PC=0x3d00 (_4.ptx:1933) bra l0x000038f8;
GPGPU-Sim PTX:    immediate post dominator      @  PC=0x3dd8 (_4.ptx:1961) l0x000038f8: mov.u32 $r6, s[0x0020];
GPGPU-Sim PTX: 86 (potential) branch divergence @  PC=0x3d10 (_4.ptx:1935) @$p2.eq bra l0x00003858;
GPGPU-Sim PTX:    immediate post dominator      @  PC=0x3d50 (_4.ptx:1943) l0x00003870: mov.u32 $r11, s[0x0020];
GPGPU-Sim PTX: 87 (potential) branch divergence @  PC=0x3d30 (_4.ptx:1939) bra l0x00003870;
GPGPU-Sim PTX:    immediate post dominator      @  PC=0x3d50 (_4.ptx:1943) l0x00003870: mov.u32 $r11, s[0x0020];
GPGPU-Sim PTX: 88 (potential) branch divergence @  PC=0x3de0 (_4.ptx:1962) bra l0x00003938;
GPGPU-Sim PTX:    immediate post dominator      @  PC=0x3e18 (_4.ptx:1969) l0x00003938: nop;
GPGPU-Sim PTX: 89 (potential) branch divergence @  PC=0x3e30 (_4.ptx:1972) @$p3.eq bra l0x00003b58;
GPGPU-Sim PTX:    immediate post dominator      @  PC=0x4050 (_4.ptx:2044) l0x00003b70: set.gt.s32.s32 $p1/$o127, s[0x0028], $r124;
GPGPU-Sim PTX: 90 (potential) branch divergence @  PC=0x3ec0 (_4.ptx:1990) @$p2.eq bra l0x00003aa0;
GPGPU-Sim PTX:    immediate post dominator      @  PC=0x3fc0 (_4.ptx:2024) l0x00003ae0: shr.s32 $r15, $r5, 0x0000001f;
GPGPU-Sim PTX: 91 (potential) branch divergence @  PC=0x3f78 (_4.ptx:2015) bra l0x00003ae0;
GPGPU-Sim PTX:    immediate post dominator      @  PC=0x3fc0 (_4.ptx:2024) l0x00003ae0: shr.s32 $r15, $r5, 0x0000001f;
GPGPU-Sim PTX: 92 (potential) branch divergence @  PC=0x4030 (_4.ptx:2040) bra l0x00003b70;
GPGPU-Sim PTX:    immediate post dominator      @  PC=0x4050 (_4.ptx:2044) l0x00003b70: set.gt.s32.s32 $p1/$o127, s[0x0028], $r124;
GPGPU-Sim PTX: 93 (potential) branch divergence @  PC=0x4438 (_4.ptx:2173) @$p0.eq bra l0x00004328;
GPGPU-Sim PTX:    immediate post dominator      @  PC=0x4808 (_4.ptx:2300) l0x00004328: nop;
GPGPU-Sim PTX: 94 (potential) branch divergence @  PC=0x4940 (_4.ptx:2343) @$p1.eq bra l0x000044b0;
GPGPU-Sim PTX:    immediate post dominator      @  PC=0x4990 (_4.ptx:2354) l0x000044b0: nop;
GPGPU-Sim PTX: 95 (potential) branch divergence @  PC=0x4ae8 (_4.ptx:2401) @$p1.eq bra l0x00004660;
GPGPU-Sim PTX:    immediate post dominator      @  PC=0x4b40 (_4.ptx:2413) l0x00004660: nop;
GPGPU-Sim PTX: 96 (potential) branch divergence @  PC=0x4f50 (_4.ptx:2551) @$p2.ne bra l0x00003c20;
GPGPU-Sim PTX:    immediate post dominator      @  PC=0x4f58 (_4.ptx:2552) nop;
GPGPU-Sim PTX: ... end of reconvergence points for _ZN8dwt_cuda12fdwt53KernelILi64ELi8EEEvPKiPiiii
GPGPU-Sim PTX: ... done pre-decoding instructions for '_ZN8dwt_cuda12fdwt53KernelILi64ELi8EEEvPKiPiiii'.
GPGPU-Sim PTX: instruction assembly for function '_ZN8dwt_cuda12fdwt53KernelILi128ELi8EEEvPKiPiiii'...   done.
GPGPU-Sim PTX: finding reconvergence points for '_ZN8dwt_cuda12fdwt53KernelILi128ELi8EEEvPKiPiiii'...
GPGPU-Sim PTX: Warning detected predicated return/exit.
GPGPU-Sim PTX: Warning detected predicated return/exit.
GPGPU-Sim PTX: Warning detected predicated return/exit.
GPGPU-Sim PTX: Finding dominators for '_ZN8dwt_cuda12fdwt53KernelILi128ELi8EEEvPKiPiiii'...
GPGPU-Sim PTX: Finding immediate dominators for '_ZN8dwt_cuda12fdwt53KernelILi128ELi8EEEvPKiPiiii'...
GPGPU-Sim PTX: Finding postdominators for '_ZN8dwt_cuda12fdwt53KernelILi128ELi8EEEvPKiPiiii'...
GPGPU-Sim PTX: Finding immediate postdominators for '_ZN8dwt_cuda12fdwt53KernelILi128ELi8EEEvPKiPiiii'...
GPGPU-Sim PTX: pre-decoding instructions for '_ZN8dwt_cuda12fdwt53KernelILi128ELi8EEEvPKiPiiii'...
GPGPU-Sim PTX: reconvergence points for _ZN8dwt_cuda12fdwt53KernelILi128ELi8EEEvPKiPiiii...
GPGPU-Sim PTX:  1 (potential) branch divergence @  PC=0x5040 (_4.ptx:2601) @$p3.ne bra l0x00001b68;
GPGPU-Sim PTX:    immediate post dominator      @ 
GPGPU-Sim PTX:  2 (potential) branch divergence @  PC=0x5070 (_4.ptx:2608) @$p1.eq bra l0x000002e8;
GPGPU-Sim PTX:    immediate post dominator      @  PC=0x5388 (_4.ptx:2714) l0x00000420: ssy 0x000007e8;
GPGPU-Sim PTX:  3 (potential) branch divergence @  PC=0x5080 (_4.ptx:2610) @$p2.eq bra l0x00000140;
GPGPU-Sim PTX:    immediate post dominator      @  PC=0x50c8 (_4.ptx:2619) l0x00000160: mov.u32 $r0, s[0x0020];
GPGPU-Sim PTX:  4 (potential) branch divergence @  PC=0x50a0 (_4.ptx:2614) bra l0x00000160;
GPGPU-Sim PTX:    immediate post dominator      @  PC=0x50c8 (_4.ptx:2619) l0x00000160: mov.u32 $r0, s[0x0020];
GPGPU-Sim PTX:  5 (potential) branch divergence @  PC=0x51c0 (_4.ptx:2653) @$p2.eq bra l0x00000280;
GPGPU-Sim PTX:    immediate post dominator      @  PC=0x5200 (_4.ptx:2661) l0x00000298: nop;
GPGPU-Sim PTX:  6 (potential) branch divergence @  PC=0x51e0 (_4.ptx:2657) bra l0x00000298;
GPGPU-Sim PTX:    immediate post dominator      @  PC=0x5200 (_4.ptx:2661) l0x00000298: nop;
GPGPU-Sim PTX:  7 (potential) branch divergence @  PC=0x5248 (_4.ptx:2672) bra l0x00000420;
GPGPU-Sim PTX:    immediate post dominator      @  PC=0x5388 (_4.ptx:2714) l0x00000420: ssy 0x000007e8;
GPGPU-Sim PTX:  8 (potential) branch divergence @  PC=0x5258 (_4.ptx:2674) @$p2.eq bra l0x00000318;
GPGPU-Sim PTX:    immediate post dominator      @  PC=0x5298 (_4.ptx:2682) l0x00000330: mov.u32 $r0, s[0x0020];
GPGPU-Sim PTX:  9 (potential) branch divergence @  PC=0x5278 (_4.ptx:2678) bra l0x00000330;
GPGPU-Sim PTX:    immediate post dominator      @  PC=0x5298 (_4.ptx:2682) l0x00000330: mov.u32 $r0, s[0x0020];
GPGPU-Sim PTX: 10 (potential) branch divergence @  PC=0x5390 (_4.ptx:2715) @$p0.eq bra l0x000007b0;
GPGPU-Sim PTX:    immediate post dominator      @  PC=0x5750 (_4.ptx:2843) l0x000007e8: nop;
GPGPU-Sim PTX: 11 (potential) branch divergence @  PC=0x5418 (_4.ptx:2733) @$p1.eq bra l0x00000670;
GPGPU-Sim PTX:    immediate post dominator      @  PC=0x5750 (_4.ptx:2843) l0x000007e8: nop;
GPGPU-Sim PTX: 12 (potential) branch divergence @  PC=0x5428 (_4.ptx:2735) @$p2.eq bra l0x000004e8;
GPGPU-Sim PTX:    immediate post dominator      @  PC=0x5468 (_4.ptx:2743) l0x00000500: mov.u32 $r0, s[0x0020];
GPGPU-Sim PTX: 13 (potential) branch divergence @  PC=0x5448 (_4.ptx:2739) bra l0x00000500;
GPGPU-Sim PTX:    immediate post dominator      @  PC=0x5468 (_4.ptx:2743) l0x00000500: mov.u32 $r0, s[0x0020];
GPGPU-Sim PTX: 14 (potential) branch divergence @  PC=0x5548 (_4.ptx:2774) @$p2.eq bra l0x00000608;
GPGPU-Sim PTX:    immediate post dominator      @  PC=0x5588 (_4.ptx:2782) l0x00000620: nop;
GPGPU-Sim PTX: 15 (potential) branch divergence @  PC=0x5568 (_4.ptx:2778) bra l0x00000620;
GPGPU-Sim PTX:    immediate post dominator      @  PC=0x5588 (_4.ptx:2782) l0x00000620: nop;
GPGPU-Sim PTX: 16 (potential) branch divergence @  PC=0x55d0 (_4.ptx:2793) bra l0x000007e8;
GPGPU-Sim PTX:    immediate post dominator      @  PC=0x5750 (_4.ptx:2843) l0x000007e8: nop;
GPGPU-Sim PTX: 17 (potential) branch divergence @  PC=0x55e0 (_4.ptx:2795) @$p2.eq bra l0x000006a0;
GPGPU-Sim PTX:    immediate post dominator      @  PC=0x5620 (_4.ptx:2803) l0x000006b8: mov.u32 $r0, s[0x0020];
GPGPU-Sim PTX: 18 (potential) branch divergence @  PC=0x5600 (_4.ptx:2799) bra l0x000006b8;
GPGPU-Sim PTX:    immediate post dominator      @  PC=0x5620 (_4.ptx:2803) l0x000006b8: mov.u32 $r0, s[0x0020];
GPGPU-Sim PTX: 19 (potential) branch divergence @  PC=0x5710 (_4.ptx:2835) bra l0x000007e8;
GPGPU-Sim PTX:    immediate post dominator      @  PC=0x5750 (_4.ptx:2843) l0x000007e8: nop;
GPGPU-Sim PTX: 20 (potential) branch divergence @  PC=0x5768 (_4.ptx:2846) @$p3.eq bra l0x00000a30;
GPGPU-Sim PTX:    immediate post dominator      @  PC=0x59b8 (_4.ptx:2925) l0x00000a50: set.gt.s32.s32 $p1/$o127, s[0x0028], $r124;
GPGPU-Sim PTX: 21 (potential) branch divergence @  PC=0x57f8 (_4.ptx:2864) @$p2.eq bra l0x00000928;
GPGPU-Sim PTX:    immediate post dominator      @  PC=0x58d8 (_4.ptx:2893) l0x00000970: shr.s32 $r5, $r8, 0x0000001f;
GPGPU-Sim PTX: 22 (potential) branch divergence @  PC=0x5888 (_4.ptx:2883) bra l0x00000970;
GPGPU-Sim PTX:    immediate post dominator      @  PC=0x58d8 (_4.ptx:2893) l0x00000970: shr.s32 $r5, $r8, 0x0000001f;
GPGPU-Sim PTX: 23 (potential) branch divergence @  PC=0x5990 (_4.ptx:2920) bra l0x00000a50;
GPGPU-Sim PTX:    immediate post dominator      @  PC=0x59b8 (_4.ptx:2925) l0x00000a50: set.gt.s32.s32 $p1/$o127, s[0x0028], $r124;
GPGPU-Sim PTX: 24 (potential) branch divergence @  PC=0x5fa8 (_4.ptx:3120) @$p0.eq bra l0x000015d0;
GPGPU-Sim PTX:    immediate post dominator      @  PC=0x6538 (_4.ptx:3298) l0x000015d0: nop;
GPGPU-Sim PTX: 25 (potential) branch divergence @  PC=0x6670 (_4.ptx:3341) @$p1.eq bra l0x00001758;
GPGPU-Sim PTX:    immediate post dominator      @  PC=0x66c0 (_4.ptx:3352) l0x00001758: nop;
GPGPU-Sim PTX: 26 (potential) branch divergence @  PC=0x6818 (_4.ptx:3399) @$p1.eq bra l0x00001908;
GPGPU-Sim PTX:    immediate post dominator      @  PC=0x6870 (_4.ptx:3411) l0x00001908: nop;
GPGPU-Sim PTX: 27 (potential) branch divergence @  PC=0x6898 (_4.ptx:3416) @$p3.eq bra l0x00001970;
GPGPU-Sim PTX:    immediate post dominator      @  PC=0x68d8 (_4.ptx:3425) l0x00001970: nop;
GPGPU-Sim PTX: 28 (potential) branch divergence @  PC=0x68e8 (_4.ptx:3427) @$p2.eq bra l0x00001b38;
GPGPU-Sim PTX:    immediate post dominator      @  PC=0x6aa0 (_4.ptx:3489) l0x00001b38: nop;
GPGPU-Sim PTX: 29 (potential) branch divergence @  PC=0x6928 (_4.ptx:3436) @$p2.eq bra l0x00001b38;
GPGPU-Sim PTX:    immediate post dominator      @  PC=0x6aa0 (_4.ptx:3489) l0x00001b38: nop;
GPGPU-Sim PTX: 30 (potential) branch divergence @  PC=0x6968 (_4.ptx:3445) @$p2.eq bra l0x00001b38;
GPGPU-Sim PTX:    immediate post dominator      @  PC=0x6aa0 (_4.ptx:3489) l0x00001b38: nop;
GPGPU-Sim PTX: 31 (potential) branch divergence @  PC=0x69a8 (_4.ptx:3454) @$p2.eq bra l0x00001b38;
GPGPU-Sim PTX:    immediate post dominator      @  PC=0x6aa0 (_4.ptx:3489) l0x00001b38: nop;
GPGPU-Sim PTX: 32 (potential) branch divergence @  PC=0x69e8 (_4.ptx:3463) @$p2.eq bra l0x00001b38;
GPGPU-Sim PTX:    immediate post dominator      @  PC=0x6aa0 (_4.ptx:3489) l0x00001b38: nop;
GPGPU-Sim PTX: 33 (potential) branch divergence @  PC=0x6a28 (_4.ptx:3472) @$p2.eq bra l0x00001b38;
GPGPU-Sim PTX:    immediate post dominator      @  PC=0x6aa0 (_4.ptx:3489) l0x00001b38: nop;
GPGPU-Sim PTX: 34 (potential) branch divergence @  PC=0x6a68 (_4.ptx:3481) @$p2.eq bra l0x00001b38;
GPGPU-Sim PTX:    immediate post dominator      @  PC=0x6aa0 (_4.ptx:3489) l0x00001b38: nop;
GPGPU-Sim PTX: 35 (potential) branch divergence @  PC=0x6ac0 (_4.ptx:3493) @$p2.ne bra l0x00000b20;
GPGPU-Sim PTX:    immediate post dominator      @  PC=0x6ac8 (_4.ptx:3494) retp;
GPGPU-Sim PTX: 36 (potential) branch divergence @  PC=0x6ae8 (_4.ptx:3498) @$p3.ne bra l0x000030d0;
GPGPU-Sim PTX:    immediate post dominator      @ 
GPGPU-Sim PTX: 37 (potential) branch divergence @  PC=0x6af0 (_4.ptx:3499) @$p1.eq bra l0x00001cf0;
GPGPU-Sim PTX:    immediate post dominator      @  PC=0x6d28 (_4.ptx:3573) l0x00001dc0: ssy 0x000020c0;
GPGPU-Sim PTX: 38 (potential) branch divergence @  PC=0x6b00 (_4.ptx:3501) @$p2.eq bra l0x00001bc0;
GPGPU-Sim PTX:    immediate post dominator      @  PC=0x6b48 (_4.ptx:3510) l0x00001be0: mov.u32 $r0, s[0x0020];
GPGPU-Sim PTX: 39 (potential) branch divergence @  PC=0x6b20 (_4.ptx:3505) bra l0x00001be0;
GPGPU-Sim PTX:    immediate post dominator      @  PC=0x6b48 (_4.ptx:3510) l0x00001be0: mov.u32 $r0, s[0x0020];
GPGPU-Sim PTX: 40 (potential) branch divergence @  PC=0x6bd0 (_4.ptx:3528) @$p2.eq bra l0x00001c90;
GPGPU-Sim PTX:    immediate post dominator      @  PC=0x6c10 (_4.ptx:3536) l0x00001ca8: nop;
GPGPU-Sim PTX: 41 (potential) branch divergence @  PC=0x6bf0 (_4.ptx:3532) bra l0x00001ca8;
GPGPU-Sim PTX:    immediate post dominator      @  PC=0x6c10 (_4.ptx:3536) l0x00001ca8: nop;
GPGPU-Sim PTX: 42 (potential) branch divergence @  PC=0x6c50 (_4.ptx:3545) bra l0x00001dc0;
GPGPU-Sim PTX:    immediate post dominator      @  PC=0x6d28 (_4.ptx:3573) l0x00001dc0: ssy 0x000020c0;
GPGPU-Sim PTX: 43 (potential) branch divergence @  PC=0x6c60 (_4.ptx:3547) @$p2.eq bra l0x00001d20;
GPGPU-Sim PTX:    immediate post dominator      @  PC=0x6ca0 (_4.ptx:3555) l0x00001d38: mov.u32 $r0, s[0x0020];
GPGPU-Sim PTX: 44 (potential) branch divergence @  PC=0x6c80 (_4.ptx:3551) bra l0x00001d38;
GPGPU-Sim PTX:    immediate post dominator      @  PC=0x6ca0 (_4.ptx:3555) l0x00001d38: mov.u32 $r0, s[0x0020];
GPGPU-Sim PTX: 45 (potential) branch divergence @  PC=0x6d30 (_4.ptx:3574) @$p0.eq bra l0x00002090;
GPGPU-Sim PTX:    immediate post dominator      @  PC=0x7028 (_4.ptx:3673) l0x000020c0: nop;
GPGPU-Sim PTX: 46 (potential) branch divergence @  PC=0x6db8 (_4.ptx:3592) @$p1.eq bra l0x00001fb0;
GPGPU-Sim PTX:    immediate post dominator      @  PC=0x6fe8 (_4.ptx:3665) l0x00002080: mov.u32 $r16, s[0x0020];
GPGPU-Sim PTX: 47 (potential) branch divergence @  PC=0x6dc8 (_4.ptx:3594) @$p2.eq bra l0x00001e88;
GPGPU-Sim PTX:    immediate post dominator      @  PC=0x6e08 (_4.ptx:3602) l0x00001ea0: mov.u32 $r0, s[0x0020];
GPGPU-Sim PTX: 48 (potential) branch divergence @  PC=0x6de8 (_4.ptx:3598) bra l0x00001ea0;
GPGPU-Sim PTX:    immediate post dominator      @  PC=0x6e08 (_4.ptx:3602) l0x00001ea0: mov.u32 $r0, s[0x0020];
GPGPU-Sim PTX: 49 (potential) branch divergence @  PC=0x6e90 (_4.ptx:3620) @$p2.eq bra l0x00001f50;
GPGPU-Sim PTX:    immediate post dominator      @  PC=0x6ed0 (_4.ptx:3628) l0x00001f68: nop;
GPGPU-Sim PTX: 50 (potential) branch divergence @  PC=0x6eb0 (_4.ptx:3624) bra l0x00001f68;
GPGPU-Sim PTX:    immediate post dominator      @  PC=0x6ed0 (_4.ptx:3628) l0x00001f68: nop;
GPGPU-Sim PTX: 51 (potential) branch divergence @  PC=0x6f10 (_4.ptx:3637) bra l0x00002080;
GPGPU-Sim PTX:    immediate post dominator      @  PC=0x6fe8 (_4.ptx:3665) l0x00002080: mov.u32 $r16, s[0x0020];
GPGPU-Sim PTX: 52 (potential) branch divergence @  PC=0x6f20 (_4.ptx:3639) @$p2.eq bra l0x00001fe0;
GPGPU-Sim PTX:    immediate post dominator      @  PC=0x6f60 (_4.ptx:3647) l0x00001ff8: mov.u32 $r0, s[0x0020];
GPGPU-Sim PTX: 53 (potential) branch divergence @  PC=0x6f40 (_4.ptx:3643) bra l0x00001ff8;
GPGPU-Sim PTX:    immediate post dominator      @  PC=0x6f60 (_4.ptx:3647) l0x00001ff8: mov.u32 $r0, s[0x0020];
GPGPU-Sim PTX: 54 (potential) branch divergence @  PC=0x6ff0 (_4.ptx:3666) bra l0x000020c0;
GPGPU-Sim PTX:    immediate post dominator      @  PC=0x7028 (_4.ptx:3673) l0x000020c0: nop;
GPGPU-Sim PTX: 55 (potential) branch divergence @  PC=0x7040 (_4.ptx:3676) @$p3.eq bra l0x00002330;
GPGPU-Sim PTX:    immediate post dominator      @  PC=0x72b8 (_4.ptx:3761) l0x00002350: set.gt.s32.s32 $p1/$o127, s[0x0028], $r124;
GPGPU-Sim PTX: 56 (potential) branch divergence @  PC=0x70d0 (_4.ptx:3694) @$p2.eq bra l0x00002228;
GPGPU-Sim PTX:    immediate post dominator      @  PC=0x71d8 (_4.ptx:3729) l0x00002270: shr.s32 $r5, $r8, 0x0000001f;
GPGPU-Sim PTX: 57 (potential) branch divergence @  PC=0x7188 (_4.ptx:3719) bra l0x00002270;
GPGPU-Sim PTX:    immediate post dominator      @  PC=0x71d8 (_4.ptx:3729) l0x00002270: shr.s32 $r5, $r8, 0x0000001f;
GPGPU-Sim PTX: 58 (potential) branch divergence @  PC=0x7290 (_4.ptx:3756) bra l0x00002350;
GPGPU-Sim PTX:    immediate post dominator      @  PC=0x72b8 (_4.ptx:3761) l0x00002350: set.gt.s32.s32 $p1/$o127, s[0x0028], $r124;
GPGPU-Sim PTX: 59 (potential) branch divergence @  PC=0x76b8 (_4.ptx:3898) @$p0.eq bra l0x00002b38;
GPGPU-Sim PTX:    immediate post dominator      @  PC=0x7aa0 (_4.ptx:4029) l0x00002b38: nop;
GPGPU-Sim PTX: 60 (potential) branch divergence @  PC=0x7bd8 (_4.ptx:4072) @$p1.eq bra l0x00002cc0;
GPGPU-Sim PTX:    immediate post dominator      @  PC=0x7c28 (_4.ptx:4083) l0x00002cc0: nop;
GPGPU-Sim PTX: 61 (potential) branch divergence @  PC=0x7d80 (_4.ptx:4130) @$p1.eq bra l0x00002e70;
GPGPU-Sim PTX:    immediate post dominator      @  PC=0x7dd8 (_4.ptx:4142) l0x00002e70: nop;
GPGPU-Sim PTX: 62 (potential) branch divergence @  PC=0x7e00 (_4.ptx:4147) @$p3.eq bra l0x00002ed8;
GPGPU-Sim PTX:    immediate post dominator      @  PC=0x7e40 (_4.ptx:4156) l0x00002ed8: nop;
GPGPU-Sim PTX: 63 (potential) branch divergence @  PC=0x7e50 (_4.ptx:4158) @$p2.eq bra l0x000030a0;
GPGPU-Sim PTX:    immediate post dominator      @  PC=0x8008 (_4.ptx:4220) l0x000030a0: nop;
GPGPU-Sim PTX: 64 (potential) branch divergence @  PC=0x7e90 (_4.ptx:4167) @$p2.eq bra l0x000030a0;
GPGPU-Sim PTX:    immediate post dominator      @  PC=0x8008 (_4.ptx:4220) l0x000030a0: nop;
GPGPU-Sim PTX: 65 (potential) branch divergence @  PC=0x7ed0 (_4.ptx:4176) @$p2.eq bra l0x000030a0;
GPGPU-Sim PTX:    immediate post dominator      @  PC=0x8008 (_4.ptx:4220) l0x000030a0: nop;
GPGPU-Sim PTX: 66 (potential) branch divergence @  PC=0x7f10 (_4.ptx:4185) @$p2.eq bra l0x000030a0;
GPGPU-Sim PTX:    immediate post dominator      @  PC=0x8008 (_4.ptx:4220) l0x000030a0: nop;
GPGPU-Sim PTX: 67 (potential) branch divergence @  PC=0x7f50 (_4.ptx:4194) @$p2.eq bra l0x000030a0;
GPGPU-Sim PTX:    immediate post dominator      @  PC=0x8008 (_4.ptx:4220) l0x000030a0: nop;
GPGPU-Sim PTX: 68 (potential) branch divergence @  PC=0x7f90 (_4.ptx:4203) @$p2.eq bra l0x000030a0;
GPGPU-Sim PTX:    immediate post dominator      @  PC=0x8008 (_4.ptx:4220) l0x000030a0: nop;
GPGPU-Sim PTX: 69 (potential) branch divergence @  PC=0x7fd0 (_4.ptx:4212) @$p2.eq bra l0x000030a0;
GPGPU-Sim PTX:    immediate post dominator      @  PC=0x8008 (_4.ptx:4220) l0x000030a0: nop;
GPGPU-Sim PTX: 70 (potential) branch divergence @  PC=0x8028 (_4.ptx:4224) @$p2.ne bra l0x00002438;
GPGPU-Sim PTX:    immediate post dominator      @  PC=0x8030 (_4.ptx:4225) retp;
GPGPU-Sim PTX: 71 (potential) branch divergence @  PC=0x8038 (_4.ptx:4226) l0x000030d0: @$p1.eq bra l0x00003238;
GPGPU-Sim PTX:    immediate post dominator      @  PC=0x8270 (_4.ptx:4300) l0x00003308: ssy 0x00003608;
GPGPU-Sim PTX: 72 (potential) branch divergence @  PC=0x8048 (_4.ptx:4228) @$p2.eq bra l0x00003108;
GPGPU-Sim PTX:    immediate post dominator      @  PC=0x8090 (_4.ptx:4237) l0x00003128: mov.u32 $r0, s[0x0020];
GPGPU-Sim PTX: 73 (potential) branch divergence @  PC=0x8068 (_4.ptx:4232) bra l0x00003128;
GPGPU-Sim PTX:    immediate post dominator      @  PC=0x8090 (_4.ptx:4237) l0x00003128: mov.u32 $r0, s[0x0020];
GPGPU-Sim PTX: 74 (potential) branch divergence @  PC=0x8118 (_4.ptx:4255) @$p2.eq bra l0x000031d8;
GPGPU-Sim PTX:    immediate post dominator      @  PC=0x8158 (_4.ptx:4263) l0x000031f0: nop;
GPGPU-Sim PTX: 75 (potential) branch divergence @  PC=0x8138 (_4.ptx:4259) bra l0x000031f0;
GPGPU-Sim PTX:    immediate post dominator      @  PC=0x8158 (_4.ptx:4263) l0x000031f0: nop;
GPGPU-Sim PTX: 76 (potential) branch divergence @  PC=0x8198 (_4.ptx:4272) bra l0x00003308;
GPGPU-Sim PTX:    immediate post dominator      @  PC=0x8270 (_4.ptx:4300) l0x00003308: ssy 0x00003608;
GPGPU-Sim PTX: 77 (potential) branch divergence @  PC=0x81a8 (_4.ptx:4274) @$p2.eq bra l0x00003268;
GPGPU-Sim PTX:    immediate post dominator      @  PC=0x81e8 (_4.ptx:4282) l0x00003280: mov.u32 $r0, s[0x0020];
GPGPU-Sim PTX: 78 (potential) branch divergence @  PC=0x81c8 (_4.ptx:4278) bra l0x00003280;
GPGPU-Sim PTX:    immediate post dominator      @  PC=0x81e8 (_4.ptx:4282) l0x00003280: mov.u32 $r0, s[0x0020];
GPGPU-Sim PTX: 79 (potential) branch divergence @  PC=0x8278 (_4.ptx:4301) @$p0.eq bra l0x000035d8;
GPGPU-Sim PTX:    immediate post dominator      @  PC=0x8570 (_4.ptx:4400) l0x00003608: nop;
GPGPU-Sim PTX: 80 (potential) branch divergence @  PC=0x8300 (_4.ptx:4319) @$p1.eq bra l0x000034f8;
GPGPU-Sim PTX:    immediate post dominator      @  PC=0x8530 (_4.ptx:4392) l0x000035c8: mov.u32 $r15, s[0x0020];
GPGPU-Sim PTX: 81 (potential) branch divergence @  PC=0x8310 (_4.ptx:4321) @$p2.eq bra l0x000033d0;
GPGPU-Sim PTX:    immediate post dominator      @  PC=0x8350 (_4.ptx:4329) l0x000033e8: mov.u32 $r0, s[0x0020];
GPGPU-Sim PTX: 82 (potential) branch divergence @  PC=0x8330 (_4.ptx:4325) bra l0x000033e8;
GPGPU-Sim PTX:    immediate post dominator      @  PC=0x8350 (_4.ptx:4329) l0x000033e8: mov.u32 $r0, s[0x0020];
GPGPU-Sim PTX: 83 (potential) branch divergence @  PC=0x83d8 (_4.ptx:4347) @$p2.eq bra l0x00003498;
GPGPU-Sim PTX:    immediate post dominator      @  PC=0x8418 (_4.ptx:4355) l0x000034b0: nop;
GPGPU-Sim PTX: 84 (potential) branch divergence @  PC=0x83f8 (_4.ptx:4351) bra l0x000034b0;
GPGPU-Sim PTX:    immediate post dominator      @  PC=0x8418 (_4.ptx:4355) l0x000034b0: nop;
GPGPU-Sim PTX: 85 (potential) branch divergence @  PC=0x8458 (_4.ptx:4364) bra l0x000035c8;
GPGPU-Sim PTX:    immediate post dominator      @  PC=0x8530 (_4.ptx:4392) l0x000035c8: mov.u32 $r15, s[0x0020];
GPGPU-Sim PTX: 86 (potential) branch divergence @  PC=0x8468 (_4.ptx:4366) @$p2.eq bra l0x00003528;
GPGPU-Sim PTX:    immediate post dominator      @  PC=0x84a8 (_4.ptx:4374) l0x00003540: mov.u32 $r0, s[0x0020];
GPGPU-Sim PTX: 87 (potential) branch divergence @  PC=0x8488 (_4.ptx:4370) bra l0x00003540;
GPGPU-Sim PTX:    immediate post dominator      @  PC=0x84a8 (_4.ptx:4374) l0x00003540: mov.u32 $r0, s[0x0020];
GPGPU-Sim PTX: 88 (potential) branch divergence @  PC=0x8538 (_4.ptx:4393) bra l0x00003608;
GPGPU-Sim PTX:    immediate post dominator      @  PC=0x8570 (_4.ptx:4400) l0x00003608: nop;
GPGPU-Sim PTX: 89 (potential) branch divergence @  PC=0x8588 (_4.ptx:4403) @$p3.eq bra l0x00003820;
GPGPU-Sim PTX:    immediate post dominator      @  PC=0x87a0 (_4.ptx:4474) l0x00003838: set.gt.s32.s32 $p1/$o127, s[0x0028], $r124;
GPGPU-Sim PTX: 90 (potential) branch divergence @  PC=0x8618 (_4.ptx:4421) @$p2.eq bra l0x00003768;
GPGPU-Sim PTX:    immediate post dominator      @  PC=0x8710 (_4.ptx:4454) l0x000037a8: shr.s32 $r1, $r8, 0x0000001f;
GPGPU-Sim PTX: 91 (potential) branch divergence @  PC=0x86c8 (_4.ptx:4445) bra l0x000037a8;
GPGPU-Sim PTX:    immediate post dominator      @  PC=0x8710 (_4.ptx:4454) l0x000037a8: shr.s32 $r1, $r8, 0x0000001f;
GPGPU-Sim PTX: 92 (potential) branch divergence @  PC=0x8780 (_4.ptx:4470) bra l0x00003838;
GPGPU-Sim PTX:    immediate post dominator      @  PC=0x87a0 (_4.ptx:4474) l0x00003838: set.gt.s32.s32 $p1/$o127, s[0x0028], $r124;
GPGPU-Sim PTX: 93 (potential) branch divergence @  PC=0x8ba8 (_4.ptx:4611) @$p0.eq bra l0x00004028;
GPGPU-Sim PTX:    immediate post dominator      @  PC=0x8f90 (_4.ptx:4742) l0x00004028: nop;
GPGPU-Sim PTX: 94 (potential) branch divergence @  PC=0x90c8 (_4.ptx:4785) @$p1.eq bra l0x000041b0;
GPGPU-Sim PTX:    immediate post dominator      @  PC=0x9118 (_4.ptx:4796) l0x000041b0: nop;
GPGPU-Sim PTX: 95 (potential) branch divergence @  PC=0x9270 (_4.ptx:4843) @$p1.eq bra l0x00004360;
GPGPU-Sim PTX:    immediate post dominator      @  PC=0x92c8 (_4.ptx:4855) l0x00004360: nop;
GPGPU-Sim PTX: 96 (potential) branch divergence @  PC=0x9470 (_4.ptx:4916) @$p2.ne bra l0x00003920;
GPGPU-Sim PTX:    immediate post dominator      @  PC=0x9478 (_4.ptx:4917) nop;
GPGPU-Sim PTX: ... end of reconvergence points for _ZN8dwt_cuda12fdwt53KernelILi128ELi8EEEvPKiPiiii
GPGPU-Sim PTX: ... done pre-decoding instructions for '_ZN8dwt_cuda12fdwt53KernelILi128ELi8EEEvPKiPiiii'.
GPGPU-Sim PTX: instruction assembly for function '_ZN8dwt_cuda12fdwt53KernelILi192ELi8EEEvPKiPiiii'...   done.
GPGPU-Sim PTX: finding reconvergence points for '_ZN8dwt_cuda12fdwt53KernelILi192ELi8EEEvPKiPiiii'...
GPGPU-Sim PTX: Warning detected predicated return/exit.
GPGPU-Sim PTX: Warning detected predicated return/exit.
GPGPU-Sim PTX: Warning detected predicated return/exit.
GPGPU-Sim PTX: Finding dominators for '_ZN8dwt_cuda12fdwt53KernelILi192ELi8EEEvPKiPiiii'...
GPGPU-Sim PTX: Finding immediate dominators for '_ZN8dwt_cuda12fdwt53KernelILi192ELi8EEEvPKiPiiii'...
GPGPU-Sim PTX: Finding postdominators for '_ZN8dwt_cuda12fdwt53KernelILi192ELi8EEEvPKiPiiii'...
GPGPU-Sim PTX: Finding immediate postdominators for '_ZN8dwt_cuda12fdwt53KernelILi192ELi8EEEvPKiPiiii'...
GPGPU-Sim PTX: pre-decoding instructions for '_ZN8dwt_cuda12fdwt53KernelILi192ELi8EEEvPKiPiiii'...
GPGPU-Sim PTX: reconvergence points for _ZN8dwt_cuda12fdwt53KernelILi192ELi8EEEvPKiPiiii...
GPGPU-Sim PTX:  1 (potential) branch divergence @  PC=0x95b0 (_4.ptx:4977) @$p3.ne bra l0x00001bb8;
GPGPU-Sim PTX:    immediate post dominator      @ 
GPGPU-Sim PTX:  2 (potential) branch divergence @  PC=0x95e0 (_4.ptx:4984) @$p1.eq bra l0x00000338;
GPGPU-Sim PTX:    immediate post dominator      @  PC=0x98f8 (_4.ptx:5090) l0x00000470: ssy 0x00000838;
GPGPU-Sim PTX:  3 (potential) branch divergence @  PC=0x95f0 (_4.ptx:4986) @$p2.eq bra l0x00000190;
GPGPU-Sim PTX:    immediate post dominator      @  PC=0x9638 (_4.ptx:4995) l0x000001b0: mov.u32 $r1, s[0x0020];
GPGPU-Sim PTX:  4 (potential) branch divergence @  PC=0x9610 (_4.ptx:4990) bra l0x000001b0;
GPGPU-Sim PTX:    immediate post dominator      @  PC=0x9638 (_4.ptx:4995) l0x000001b0: mov.u32 $r1, s[0x0020];
GPGPU-Sim PTX:  5 (potential) branch divergence @  PC=0x9730 (_4.ptx:5029) @$p2.eq bra l0x000002d0;
GPGPU-Sim PTX:    immediate post dominator      @  PC=0x9770 (_4.ptx:5037) l0x000002e8: nop;
GPGPU-Sim PTX:  6 (potential) branch divergence @  PC=0x9750 (_4.ptx:5033) bra l0x000002e8;
GPGPU-Sim PTX:    immediate post dominator      @  PC=0x9770 (_4.ptx:5037) l0x000002e8: nop;
GPGPU-Sim PTX:  7 (potential) branch divergence @  PC=0x97b8 (_4.ptx:5048) bra l0x00000470;
GPGPU-Sim PTX:    immediate post dominator      @  PC=0x98f8 (_4.ptx:5090) l0x00000470: ssy 0x00000838;
GPGPU-Sim PTX:  8 (potential) branch divergence @  PC=0x97c8 (_4.ptx:5050) @$p2.eq bra l0x00000368;
GPGPU-Sim PTX:    immediate post dominator      @  PC=0x9808 (_4.ptx:5058) l0x00000380: mov.u32 $r1, s[0x0020];
GPGPU-Sim PTX:  9 (potential) branch divergence @  PC=0x97e8 (_4.ptx:5054) bra l0x00000380;
GPGPU-Sim PTX:    immediate post dominator      @  PC=0x9808 (_4.ptx:5058) l0x00000380: mov.u32 $r1, s[0x0020];
GPGPU-Sim PTX: 10 (potential) branch divergence @  PC=0x9900 (_4.ptx:5091) @$p0.eq bra l0x00000800;
GPGPU-Sim PTX:    immediate post dominator      @  PC=0x9cc0 (_4.ptx:5219) l0x00000838: nop;
GPGPU-Sim PTX: 11 (potential) branch divergence @  PC=0x9988 (_4.ptx:5109) @$p1.eq bra l0x000006c0;
GPGPU-Sim PTX:    immediate post dominator      @  PC=0x9cc0 (_4.ptx:5219) l0x00000838: nop;
GPGPU-Sim PTX: 12 (potential) branch divergence @  PC=0x9998 (_4.ptx:5111) @$p2.eq bra l0x00000538;
GPGPU-Sim PTX:    immediate post dominator      @  PC=0x99d8 (_4.ptx:5119) l0x00000550: mov.u32 $r1, s[0x0020];
GPGPU-Sim PTX: 13 (potential) branch divergence @  PC=0x99b8 (_4.ptx:5115) bra l0x00000550;
GPGPU-Sim PTX:    immediate post dominator      @  PC=0x99d8 (_4.ptx:5119) l0x00000550: mov.u32 $r1, s[0x0020];
GPGPU-Sim PTX: 14 (potential) branch divergence @  PC=0x9ab8 (_4.ptx:5150) @$p2.eq bra l0x00000658;
GPGPU-Sim PTX:    immediate post dominator      @  PC=0x9af8 (_4.ptx:5158) l0x00000670: nop;
GPGPU-Sim PTX: 15 (potential) branch divergence @  PC=0x9ad8 (_4.ptx:5154) bra l0x00000670;
GPGPU-Sim PTX:    immediate post dominator      @  PC=0x9af8 (_4.ptx:5158) l0x00000670: nop;
GPGPU-Sim PTX: 16 (potential) branch divergence @  PC=0x9b40 (_4.ptx:5169) bra l0x00000838;
GPGPU-Sim PTX:    immediate post dominator      @  PC=0x9cc0 (_4.ptx:5219) l0x00000838: nop;
GPGPU-Sim PTX: 17 (potential) branch divergence @  PC=0x9b50 (_4.ptx:5171) @$p2.eq bra l0x000006f0;
GPGPU-Sim PTX:    immediate post dominator      @  PC=0x9b90 (_4.ptx:5179) l0x00000708: mov.u32 $r1, s[0x0020];
GPGPU-Sim PTX: 18 (potential) branch divergence @  PC=0x9b70 (_4.ptx:5175) bra l0x00000708;
GPGPU-Sim PTX:    immediate post dominator      @  PC=0x9b90 (_4.ptx:5179) l0x00000708: mov.u32 $r1, s[0x0020];
GPGPU-Sim PTX: 19 (potential) branch divergence @  PC=0x9c80 (_4.ptx:5211) bra l0x00000838;
GPGPU-Sim PTX:    immediate post dominator      @  PC=0x9cc0 (_4.ptx:5219) l0x00000838: nop;
GPGPU-Sim PTX: 20 (potential) branch divergence @  PC=0x9cd8 (_4.ptx:5222) @$p3.eq bra l0x00000a80;
GPGPU-Sim PTX:    immediate post dominator      @  PC=0x9f28 (_4.ptx:5301) l0x00000aa0: set.gt.s32.s32 $p1/$o127, s[0x0028], $r124;
GPGPU-Sim PTX: 21 (potential) branch divergence @  PC=0x9d68 (_4.ptx:5240) @$p2.eq bra l0x00000978;
GPGPU-Sim PTX:    immediate post dominator      @  PC=0x9e48 (_4.ptx:5269) l0x000009c0: shr.s32 $r4, $r7, 0x0000001f;
GPGPU-Sim PTX: 22 (potential) branch divergence @  PC=0x9df8 (_4.ptx:5259) bra l0x000009c0;
GPGPU-Sim PTX:    immediate post dominator      @  PC=0x9e48 (_4.ptx:5269) l0x000009c0: shr.s32 $r4, $r7, 0x0000001f;
GPGPU-Sim PTX: 23 (potential) branch divergence @  PC=0x9f00 (_4.ptx:5296) bra l0x00000aa0;
GPGPU-Sim PTX:    immediate post dominator      @  PC=0x9f28 (_4.ptx:5301) l0x00000aa0: set.gt.s32.s32 $p1/$o127, s[0x0028], $r124;
GPGPU-Sim PTX: 24 (potential) branch divergence @  PC=0xa518 (_4.ptx:5496) @$p0.eq bra l0x00001620;
GPGPU-Sim PTX:    immediate post dominator      @  PC=0xaaa8 (_4.ptx:5674) l0x00001620: nop;
GPGPU-Sim PTX: 25 (potential) branch divergence @  PC=0xabe0 (_4.ptx:5717) @$p1.eq bra l0x000017a8;
GPGPU-Sim PTX:    immediate post dominator      @  PC=0xac30 (_4.ptx:5728) l0x000017a8: nop;
GPGPU-Sim PTX: 26 (potential) branch divergence @  PC=0xad88 (_4.ptx:5775) @$p1.eq bra l0x00001958;
GPGPU-Sim PTX:    immediate post dominator      @  PC=0xade0 (_4.ptx:5787) l0x00001958: nop;
GPGPU-Sim PTX: 27 (potential) branch divergence @  PC=0xae08 (_4.ptx:5792) @$p3.eq bra l0x000019c0;
GPGPU-Sim PTX:    immediate post dominator      @  PC=0xae48 (_4.ptx:5801) l0x000019c0: nop;
GPGPU-Sim PTX: 28 (potential) branch divergence @  PC=0xae58 (_4.ptx:5803) @$p2.eq bra l0x00001b88;
GPGPU-Sim PTX:    immediate post dominator      @  PC=0xb010 (_4.ptx:5865) l0x00001b88: nop;
GPGPU-Sim PTX: 29 (potential) branch divergence @  PC=0xae98 (_4.ptx:5812) @$p2.eq bra l0x00001b88;
GPGPU-Sim PTX:    immediate post dominator      @  PC=0xb010 (_4.ptx:5865) l0x00001b88: nop;
GPGPU-Sim PTX: 30 (potential) branch divergence @  PC=0xaed8 (_4.ptx:5821) @$p2.eq bra l0x00001b88;
GPGPU-Sim PTX:    immediate post dominator      @  PC=0xb010 (_4.ptx:5865) l0x00001b88: nop;
GPGPU-Sim PTX: 31 (potential) branch divergence @  PC=0xaf18 (_4.ptx:5830) @$p2.eq bra l0x00001b88;
GPGPU-Sim PTX:    immediate post dominator      @  PC=0xb010 (_4.ptx:5865) l0x00001b88: nop;
GPGPU-Sim PTX: 32 (potential) branch divergence @  PC=0xaf58 (_4.ptx:5839) @$p2.eq bra l0x00001b88;
GPGPU-Sim PTX:    immediate post dominator      @  PC=0xb010 (_4.ptx:5865) l0x00001b88: nop;
GPGPU-Sim PTX: 33 (potential) branch divergence @  PC=0xaf98 (_4.ptx:5848) @$p2.eq bra l0x00001b88;
GPGPU-Sim PTX:    immediate post dominator      @  PC=0xb010 (_4.ptx:5865) l0x00001b88: nop;
GPGPU-Sim PTX: 34 (potential) branch divergence @  PC=0xafd8 (_4.ptx:5857) @$p2.eq bra l0x00001b88;
GPGPU-Sim PTX:    immediate post dominator      @  PC=0xb010 (_4.ptx:5865) l0x00001b88: nop;
GPGPU-Sim PTX: 35 (potential) branch divergence @  PC=0xb030 (_4.ptx:5869) @$p2.ne bra l0x00000b70;
GPGPU-Sim PTX:    immediate post dominator      @  PC=0xb038 (_4.ptx:5870) retp;
GPGPU-Sim PTX: 36 (potential) branch divergence @  PC=0xb058 (_4.ptx:5874) @$p3.ne bra l0x00003120;
GPGPU-Sim PTX:    immediate post dominator      @ 
GPGPU-Sim PTX: 37 (potential) branch divergence @  PC=0xb060 (_4.ptx:5875) @$p1.eq bra l0x00001d40;
GPGPU-Sim PTX:    immediate post dominator      @  PC=0xb298 (_4.ptx:5949) l0x00001e10: ssy 0x00002110;
GPGPU-Sim PTX: 38 (potential) branch divergence @  PC=0xb070 (_4.ptx:5877) @$p2.eq bra l0x00001c10;
GPGPU-Sim PTX:    immediate post dominator      @  PC=0xb0b8 (_4.ptx:5886) l0x00001c30: mov.u32 $r1, s[0x0020];
GPGPU-Sim PTX: 39 (potential) branch divergence @  PC=0xb090 (_4.ptx:5881) bra l0x00001c30;
GPGPU-Sim PTX:    immediate post dominator      @  PC=0xb0b8 (_4.ptx:5886) l0x00001c30: mov.u32 $r1, s[0x0020];
GPGPU-Sim PTX: 40 (potential) branch divergence @  PC=0xb140 (_4.ptx:5904) @$p2.eq bra l0x00001ce0;
GPGPU-Sim PTX:    immediate post dominator      @  PC=0xb180 (_4.ptx:5912) l0x00001cf8: nop;
GPGPU-Sim PTX: 41 (potential) branch divergence @  PC=0xb160 (_4.ptx:5908) bra l0x00001cf8;
GPGPU-Sim PTX:    immediate post dominator      @  PC=0xb180 (_4.ptx:5912) l0x00001cf8: nop;
GPGPU-Sim PTX: 42 (potential) branch divergence @  PC=0xb1c0 (_4.ptx:5921) bra l0x00001e10;
GPGPU-Sim PTX:    immediate post dominator      @  PC=0xb298 (_4.ptx:5949) l0x00001e10: ssy 0x00002110;
GPGPU-Sim PTX: 43 (potential) branch divergence @  PC=0xb1d0 (_4.ptx:5923) @$p2.eq bra l0x00001d70;
GPGPU-Sim PTX:    immediate post dominator      @  PC=0xb210 (_4.ptx:5931) l0x00001d88: mov.u32 $r1, s[0x0020];
GPGPU-Sim PTX: 44 (potential) branch divergence @  PC=0xb1f0 (_4.ptx:5927) bra l0x00001d88;
GPGPU-Sim PTX:    immediate post dominator      @  PC=0xb210 (_4.ptx:5931) l0x00001d88: mov.u32 $r1, s[0x0020];
GPGPU-Sim PTX: 45 (potential) branch divergence @  PC=0xb2a0 (_4.ptx:5950) @$p0.eq bra l0x000020e0;
GPGPU-Sim PTX:    immediate post dominator      @  PC=0xb598 (_4.ptx:6049) l0x00002110: nop;
GPGPU-Sim PTX: 46 (potential) branch divergence @  PC=0xb328 (_4.ptx:5968) @$p1.eq bra l0x00002000;
GPGPU-Sim PTX:    immediate post dominator      @  PC=0xb558 (_4.ptx:6041) l0x000020d0: mov.u32 $r15, s[0x0020];
GPGPU-Sim PTX: 47 (potential) branch divergence @  PC=0xb338 (_4.ptx:5970) @$p2.eq bra l0x00001ed8;
GPGPU-Sim PTX:    immediate post dominator      @  PC=0xb378 (_4.ptx:5978) l0x00001ef0: mov.u32 $r1, s[0x0020];
GPGPU-Sim PTX: 48 (potential) branch divergence @  PC=0xb358 (_4.ptx:5974) bra l0x00001ef0;
GPGPU-Sim PTX:    immediate post dominator      @  PC=0xb378 (_4.ptx:5978) l0x00001ef0: mov.u32 $r1, s[0x0020];
GPGPU-Sim PTX: 49 (potential) branch divergence @  PC=0xb400 (_4.ptx:5996) @$p2.eq bra l0x00001fa0;
GPGPU-Sim PTX:    immediate post dominator      @  PC=0xb440 (_4.ptx:6004) l0x00001fb8: nop;
GPGPU-Sim PTX: 50 (potential) branch divergence @  PC=0xb420 (_4.ptx:6000) bra l0x00001fb8;
GPGPU-Sim PTX:    immediate post dominator      @  PC=0xb440 (_4.ptx:6004) l0x00001fb8: nop;
GPGPU-Sim PTX: 51 (potential) branch divergence @  PC=0xb480 (_4.ptx:6013) bra l0x000020d0;
GPGPU-Sim PTX:    immediate post dominator      @  PC=0xb558 (_4.ptx:6041) l0x000020d0: mov.u32 $r15, s[0x0020];
GPGPU-Sim PTX: 52 (potential) branch divergence @  PC=0xb490 (_4.ptx:6015) @$p2.eq bra l0x00002030;
GPGPU-Sim PTX:    immediate post dominator      @  PC=0xb4d0 (_4.ptx:6023) l0x00002048: mov.u32 $r1, s[0x0020];
GPGPU-Sim PTX: 53 (potential) branch divergence @  PC=0xb4b0 (_4.ptx:6019) bra l0x00002048;
GPGPU-Sim PTX:    immediate post dominator      @  PC=0xb4d0 (_4.ptx:6023) l0x00002048: mov.u32 $r1, s[0x0020];
GPGPU-Sim PTX: 54 (potential) branch divergence @  PC=0xb560 (_4.ptx:6042) bra l0x00002110;
GPGPU-Sim PTX:    immediate post dominator      @  PC=0xb598 (_4.ptx:6049) l0x00002110: nop;
GPGPU-Sim PTX: 55 (potential) branch divergence @  PC=0xb5b0 (_4.ptx:6052) @$p3.eq bra l0x00002380;
[...]
max_icnt2mem_latency = 980 
max_icnt2sh_latency = 1117485 
mrq_lat_table:254316 	14923 	19663 	39040 	108108 	121093 	115212 	72713 	13034 	1012 	105 	0 	0 	0 	0 	0 	0 	0 	0 	0 	0 	0 	0 	0 	0 	0 	0 	0 	0 	0 	0 	0 	
dq_lat_table:0 	0 	0 	0 	0 	0 	0 	0 	0 	0 	0 	0 	0 	0 	0 	0 	0 	0 	0 	0 	0 	0 	0 	0 	0 	0 	0 	0 	0 	0 	0 	0 	
mf_lat_table:0 	0 	0 	0 	0 	0 	0 	169233 	306714 	167093 	9943 	28 	0 	0 	0 	0 	0 	0 	0 	0 	0 	0 	0 	0 	0 	0 	0 	0 	0 	0 	0 	0 	
icnt2mem_lat_table:0 	0 	0 	255896 	72730 	99463 	157193 	66401 	59516 	2824 	0 	0 	0 	0 	0 	0 	0 	0 	0 	0 	0 	0 	0 	0 	
icnt2sh_lat_table:0 	0 	0 	86137 	120863 	69604 	13795 	380 	0 	0 	35 	1221 	2431 	4834 	9769 	19464 	38803 	63907 	58950 	153359 	9459 	0 	0 	0 	
mf_lat_pw_table:0 	0 	0 	0 	0 	0 	0 	623 	1047 	401 	0 	0 	0 	0 	0 	0 	0 	0 	0 	0 	0 	0 	0 	0 	0 	0 	0 	0 	0 	0 	0 	0 	
maximum concurrent accesses to same row:
dram[0]:        64        64        64        64        64        64        64        64        64        64        64        64        64        64        64        64 
dram[1]:        64        64        64        64        64        64        64        64        64        64        64        64        64        64        64        64 
dram[2]:        64        64        64        64        64        64        64        64        64        64        64        64        64        64        64        64 
dram[3]:        64        64        64        64        64        64        64        64        64        64        64        64        64        64        64        64 
dram[4]:        64        64        64        64        64        64        64        64        64        64        64        64        64        64        64        64 
dram[5]:        64        64        64        64        64        64        64        64        64        64        64        64        64        64        64        64 
maximum service time to same row:
dram[0]:     26378     23450     28580     17172     13767     14912     19008     20584     25447     10207     13809     20352     13499     13481     15255     28915 
dram[1]:     23066     23471     24785     23453     14488     14886     19528     28172     25409     19175     29776     20326     26060     21632     21709     14689 
dram[2]:     23524     21564     32910     21524     15748     17875     24597     16799     29750     14907     21164     20471     13096     12508     26964     11736 
dram[3]:     23338     22021     13275     21160     21744     18388     22763     21153     29234     25927     23679     23293     23660     22180     10716     18035 
dram[4]:     24481     23250     13619     12384     18552     18657     17019     18860     12151     19043     20045     28170     15528     14560     21311     17290 
dram[5]:     22257     23219     12319     11588     18290     21278     21417     20371     20263     23617     25445     16087     15878     23043     29507     11043 
average row accesses per activate:
dram[0]:  3.090077  3.372954  3.207852  3.562384  3.124802  3.541867  3.263547  3.620488  3.125951  3.474347  3.233214  3.582575  3.298969  3.572888  3.134807  3.495633 
dram[1]:  3.000371  3.231232  3.107157  3.212182  3.071631  3.316228  3.154262  3.308862  2.990906  3.159182  3.067456  3.429205  3.042683  3.239166  3.048708  3.120867 
dram[2]:  3.285473  3.160688  3.491518  3.291018  3.508996  3.200163  3.506232  3.426370  3.387125  3.260713  3.539944  3.419805  3.435226  3.345535  3.484888  3.210270 
dram[3]:  3.146037  3.042312  3.160047  3.192552  3.159185  3.157131  3.274298  3.113432  3.125990  3.066246  3.409250  3.137383  3.151287  3.096849  3.067873  3.096580 
dram[4]:  3.151425  3.388430  3.192664  3.528668  3.180421  3.518854  3.292863  3.580583  3.118071  3.470480  3.238305  3.611782  3.284476  3.464510  3.139083  3.442962 
dram[5]:  3.031970  3.192537  3.161303  3.213456  3.157543  3.288010  3.093775  3.334502  3.005658  3.183052  3.145935  3.411843  3.080031  3.232888  3.033161  3.169177 
average row locality = 759219/233766 = 3.247773
number of total memory accesses made:
dram[0]:         0         0         0         0         0         0         0         0         0         0         0         0         0         0         0         0 
dram[1]:         0         0         0         0         0         0         0         0         0         0         0         0         0         0         0         0 
dram[2]:         0         0         0         0         0         0         0         0         0         0         0         0         0         0         0         0 
dram[3]:         0         0         0         0         0         0         0         0         0         0         0         0         0         0         0         0 
dram[4]:         0         0         0         0         0         0         0         0         0         0         0         0         0         0         0         0 
dram[5]:         0         0         0         0         0         0         0         0         0         0         0         0         0         0         0         0 
total accesses: 0
min_bank_accesses = 0!
min_chip_accesses = 0!
number of total read accesses:
dram[0]:      4647      4497      4570      4382      4311      4201      4403      4268      4424      4309      4426      4260      4529      4355      4561      4454 
dram[1]:      4554      4546      4512      4486      4277      4221      4303      4329      4379      4371      4330      4320      4448      4441      4545      4520 
dram[2]:      4464      4692      4426      4534      4225      4309      4204      4436      4300      4402      4277      4419      4390      4526      4420      4592 
dram[3]:      4526      4559      4523      4509      4254      4279      4292      4315      4358      4321      4363      4300      4447      4433      4461      4527 
dram[4]:      4700      4475      4550      4423      4304      4199      4452      4244      4428      4227      4417      4260      4536      4362      4582      4455 
dram[5]:      4617      4542      4472      4508      4251      4223      4345      4312      4409      4280      4319      4327      4431      4458      4532      4496 
total reads: 423398
bank skew: 4700/4199 = 1.12
chip skew: 70616/70467 = 1.00
number of total write accesses:
dram[0]:      3792      3335      3764      3327      3576      3159      3547      3154      3791      3411      3712      3224      3791      3341      3950      3551 
dram[1]:      3523      3503      3520      3477      3313      3340      3283      3288      3514      3508      3446      3406      3536      3482      3717      3691 
dram[2]:      3316      3766      3395      3710      3186      3557      3110      3568      3382      3740      3256      3662      3353      3791      3536      3973 
dram[3]:      3531      3494      3513      3549      3347      3336      3288      3288      3532      3455      3451      3396      3510      3529      3675      3713 
dram[4]:      3812      3315      3719      3393      3558      3173      3576      3132      3785      3356      3682      3220      3800      3350      3972      3543 
dram[5]:      3539      3500      3485      3516      3305      3346      3309      3294      3559      3458      3420      3394      3497      3524      3700      3709 
total reads: 335821
bank skew: 3973/3110 = 1.28
chip skew: 56425/55547 = 1.02
average mf latency per bank:
dram[0]:        355       342       359       353       366       351       372       361       360       354       354       348       362       358       355       344
dram[1]:        342       321       341       329       346       333       355       337       345       332       343       327       341       329       333       327
dram[2]:        369       375       382       385       379       440       397       399       382       389       377       382       381       384       373       379
dram[3]:        334       351       339       356       344       354       350       367       340       358       338       353       339       354       340       347
dram[4]:        361       352       362       363       375       359       375       374       371       361       390       358       373       359       361       350
dram[5]:        339       320       337       329       343       334       347       336       344       329       333       325       345       322       337       322
maximum mf latency per bank:
dram[0]:       2455      2099      1704      1806      1670      1720      1537      1388      1733      1820      1328      1441      1474      2002      1555      2068
dram[1]:       2013      1928      1551      1702      1381      1474      1457      1662      1731      1894      1261      1546      1429      1976      1641      1605
dram[2]:       2321      2387      1920      2655      1598      1716      2038      1889      1874      1803      1626      1645      1416      1371      1765      2416
dram[3]:       1647      1856      1423      2069      1650      2150      1522      1994      1879      1654      1428      1303      1448      2164      2042      1516
dram[4]:       1833      1953      1566      2395      2083      2082      1641      1789      1865      1610      1397      1419      1507      1632      2065      1989
dram[5]:       1725      1958      1361      1824      1484      1682      1699      1849      1638      1565      1178      1572      1395      1601      2149      1524

Number of Memory Banks Accessed per Memory Operation per Warp (from 0):
0	0	0	0	0	0	0	0	0	0	0	0	0	0	0	0	0	0	0	0	0	0	0	0	0	0	0	0	0	0	0	0	0	0	0	0	0	0	0	0	0	0	0	0	0	0	0	0	0	0	0	0	0	0	0	0	0	0	0	0	0	0	0	0	0	0	0	0	0	0	0	0	0	0	0	0	0	0	0	0	0	0	0	0	0	0	0	0	0	0	0	0	0	0	0	0	
Average # of Memory Banks Accessed per Memory Operation per Warp=-nan

position of mrq chosen
0	0	0	0	0	0	0	0	0	0	0	0	0	0	0	0	

average position of mrq chosen = -nan
Memory Partition 0: 
Cache L2_bank_000:
MSHR contents

Cache L2_bank_001:
MSHR contents

In Dram Latency Queue (total = 0): 
DRAM[0]: 16 bks, busW=4 BL=8 CL=12, tRRD=2 tCCD=6, tRCD=12 tRAS=28 tRP=12 tRC=40
n_cmd=1475073 n_nop=1155676 n_act=38040 n_pre=38024 n_req=127022 n_rd=141194 n_write=102139 bw_util=0.3299
n_activity=946238 dram_eff=0.5143
bk0: 9294a 1179466i bk1: 8994a 1198525i bk2: 9140a 1183139i bk3: 8764a 1205772i bk4: 8622a 1192585i bk5: 8402a 1216928i bk6: 8806a 1179462i bk7: 8536a 1201149i bk8: 8848a 1196460i bk9: 8618a 1214421i bk10: 8852a 1195543i bk11: 8520a 1215354i bk12: 9058a 1173111i bk13: 8710a 1191424i bk14: 9122a 1165099i bk15: 8908a 1183097i 
dram_util_bins: 0 0 0 0 0 0 0 0 0 0
dram_eff_bins: 0 0 0 0 0 0 0 0 0 0
mrqq: max=16 avg=5.65463
Memory Partition 1: 
Cache L2_bank_002:
MSHR contents

Cache L2_bank_003:
MSHR contents

In Dram Latency Queue (total = 0): 
DRAM[1]: 16 bks, busW=4 BL=8 CL=12, tRRD=2 tCCD=6, tRCD=12 tRAS=28 tRP=12 tRC=40
n_cmd=1475073 n_nop=1155980 n_act=40037 n_pre=40021 n_req=126129 n_rd=141164 n_write=97871 bw_util=0.3241
n_activity=945376 dram_eff=0.5057
bk0: 9108a 1190934i bk1: 9092a 1191399i bk2: 9024a 1192886i bk3: 8972a 1194058i bk4: 8554a 1205771i bk5: 8442a 1205934i bk6: 8606a 1192088i bk7: 8658a 1194364i bk8: 8758a 1202977i bk9: 8742a 1207869i bk10: 8660a 1203967i bk11: 8640a 1210190i bk12: 8896a 1181184i bk13: 8882a 1186584i bk14: 9090a 1171964i bk15: 9040a 1172929i 
dram_util_bins: 0 0 0 0 0 0 0 0 0 0
dram_eff_bins: 0 0 0 0 0 0 0 0 0 0
mrqq: max=16 avg=5.18574
Memory Partition 2: 
Cache L2_bank_004:
MSHR contents

Cache L2_bank_005:
MSHR contents

In Dram Latency Queue (total = 0): 
DRAM[2]: 16 bks, busW=4 BL=8 CL=12, tRRD=2 tCCD=6, tRCD=12 tRAS=28 tRP=12 tRC=40
n_cmd=1475073 n_nop=1156386 n_act=37728 n_pre=37712 n_req=126917 n_rd=141232 n_write=102015 bw_util=0.3298
n_activity=945042 dram_eff=0.5148
bk0: 8928a 1206672i bk1: 9384a 1175084i bk2: 8852a 1204764i bk3: 9068a 1186807i bk4: 8450a 1219754i bk5: 8618a 1191579i bk6: 8408a 1204390i bk7: 8872a 1175063i bk8: 8600a 1217399i bk9: 8804a 1195927i bk10: 8554a 1219203i bk11: 8838a 1193593i bk12: 8780a 1198509i bk13: 9052a 1175839i bk14: 8840a 1187527i bk15: 9184a 1156756i 
dram_util_bins: 0 0 0 0 0 0 0 0 0 0
dram_eff_bins: 0 0 0 0 0 0 0 0 0 0
mrqq: max=16 avg=5.66536
Memory Partition 3: 
Cache L2_bank_006:
MSHR contents

Cache L2_bank_007:
MSHR contents

In Dram Latency Queue (total = 0): 
DRAM[3]: 16 bks, busW=4 BL=8 CL=12, tRRD=2 tCCD=6, tRCD=12 tRAS=28 tRP=12 tRC=40
n_cmd=1475073 n_nop=1155940 n_act=40064 n_pre=40048 n_req=126074 n_rd=140934 n_write=98087 bw_util=0.3241
n_activity=942900 dram_eff=0.507
bk0: 9052a 1197502i bk1: 9118a 1190636i bk2: 9046a 1196945i bk3: 9018a 1191283i bk4: 8508a 1206969i bk5: 8558a 1203478i bk6: 8584a 1198554i bk7: 8630a 1187689i bk8: 8716a 1211665i bk9: 8642a 1204436i bk10: 8726a 1210964i bk11: 8600a 1204855i bk12: 8894a 1196546i bk13: 8866a 1184814i bk14: 8922a 1176308i bk15: 9054a 1167785i 
dram_util_bins: 0 0 0 0 0 0 0 0 0 0
dram_eff_bins: 0 0 0 0 0 0 0 0 0 0
mrqq: max=16 avg=5.18668
Memory Partition 4: 
Cache L2_bank_008:
MSHR contents

Cache L2_bank_009:
MSHR contents

In Dram Latency Queue (total = 0): 
DRAM[4]: 16 bks, busW=4 BL=8 CL=12, tRRD=2 tCCD=6, tRCD=12 tRAS=28 tRP=12 tRC=40
n_cmd=1475073 n_nop=1155588 n_act=38073 n_pre=38057 n_req=127000 n_rd=141228 n_write=102127 bw_util=0.33
n_activity=948693 dram_eff=0.513
bk0: 9400a 1178863i bk1: 8950a 1201648i bk2: 9100a 1194077i bk3: 8846a 1200233i bk4: 8608a 1198134i bk5: 8398a 1214531i bk6: 8904a 1178543i bk7: 8488a 1202649i bk8: 8856a 1200429i bk9: 8454a 1217038i bk10: 8834a 1193104i bk11: 8520a 1213603i bk12: 9072a 1174537i bk13: 8724a 1193008i bk14: 9164a 1162132i bk15: 8910a 1178573i 
dram_util_bins: 0 0 0 0 0 0 0 0 0 0
dram_eff_bins: 0 0 0 0 0 0 0 0 0 0
mrqq: max=16 avg=5.62098
Memory Partition 5: 
Cache L2_bank_010:
MSHR contents

Cache L2_bank_011:
MSHR contents

In Dram Latency Queue (total = 0): 
DRAM[5]: 16 bks, busW=4 BL=8 CL=12, tRRD=2 tCCD=6, tRCD=12 tRAS=28 tRP=12 tRC=40
n_cmd=1475073 n_nop=1156393 n_act=39824 n_pre=39808 n_req=126077 n_rd=141044 n_write=98004 bw_util=0.3241
n_activity=945434 dram_eff=0.5057
bk0: 9234a 1192787i bk1: 9084a 1192852i bk2: 8944a 1198912i bk3: 9016a 1196226i bk4: 8502a 1207498i bk5: 8446a 1204291i bk6: 8690a 1193738i bk7: 8624a 1197805i bk8: 8818a 1205281i bk9: 8560a 1211541i bk10: 8638a 1211582i bk11: 8654a 1208721i bk12: 8862a 1189339i bk13: 8916a 1190792i bk14: 9064a 1173004i bk15: 8992a 1171503i 
dram_util_bins: 0 0 0 0 0 0 0 0 0 0
dram_eff_bins: 0 0 0 0 0 0 0 0 0 0
mrqq: max=16 avg=5.16945

========= L2 cache stats =========
L2_cache_bank[0]: Access = 61053, Miss = 35871, Miss_rate = 0.588, Pending_hits = 3289, Reservation_fails = 6105
L2_cache_bank[1]: Access = 57059, Miss = 34726, Miss_rate = 0.609, Pending_hits = 3276, Reservation_fails = 6731
L2_cache_bank[2]: Access = 61073, Miss = 35348, Miss_rate = 0.579, Pending_hits = 2747, Reservation_fails = 7723
L2_cache_bank[3]: Access = 58599, Miss = 35234, Miss_rate = 0.601, Pending_hits = 2650, Reservation_fails = 5554
L2_cache_bank[4]: Access = 56648, Miss = 34706, Miss_rate = 0.613, Pending_hits = 3247, Reservation_fails = 6250
L2_cache_bank[5]: Access = 62817, Miss = 35910, Miss_rate = 0.572, Pending_hits = 3224, Reservation_fails = 7258
L2_cache_bank[6]: Access = 58325, Miss = 35224, Miss_rate = 0.604, Pending_hits = 2728, Reservation_fails = 6092
L2_cache_bank[7]: Access = 60117, Miss = 35243, Miss_rate = 0.586, Pending_hits = 2724, Reservation_fails = 4714
L2_cache_bank[8]: Access = 62060, Miss = 35969, Miss_rate = 0.580, Pending_hits = 3276, Reservation_fails = 7920
L2_cache_bank[9]: Access = 56876, Miss = 34645, Miss_rate = 0.609, Pending_hits = 3341, Reservation_fails = 7749
L2_cache_bank[10]: Access = 61379, Miss = 35376, Miss_rate = 0.576, Pending_hits = 2703, Reservation_fails = 6437
L2_cache_bank[11]: Access = 58017, Miss = 35146, Miss_rate = 0.606, Pending_hits = 2748, Reservation_fails = 5181
L2_total_cache_accesses = 714023
L2_total_cache_misses = 423398
L2_total_cache_miss_rate = 0.5930
L2_total_cache_pending_hits = 35953
L2_total_cache_reservation_fails = 77714
L2_total_cache_breakdown:
	L2_cache_stats_breakdown[GLOBAL_ACC_R][HIT] = 105911
	L2_cache_stats_breakdown[GLOBAL_ACC_R][HIT_RESERVED] = 1084
	L2_cache_stats_breakdown[GLOBAL_ACC_R][MISS] = 182606
	L2_cache_stats_breakdown[GLOBAL_ACC_R][RESERVATION_FAIL] = 12790
	L2_cache_stats_breakdown[LOCAL_ACC_R][HIT] = 1036
	L2_cache_stats_breakdown[LOCAL_ACC_R][HIT_RESERVED] = 142
	L2_cache_stats_breakdown[GLOBAL_ACC_W][HIT] = 91949
	L2_cache_stats_breakdown[GLOBAL_ACC_W][HIT_RESERVED] = 31353
	L2_cache_stats_breakdown[GLOBAL_ACC_W][MISS] = 238138
	L2_cache_stats_breakdown[GLOBAL_ACC_W][RESERVATION_FAIL] = 7484
	L2_cache_stats_breakdown[LOCAL_ACC_W][HIT] = 88
	L2_cache_stats_breakdown[LOCAL_ACC_W][MISS] = 704
	L2_cache_stats_breakdown[LOCAL_ACC_W][RESERVATION_FAIL] = 19
	L2_cache_stats_breakdown[L1_WRBK_ACC][HIT] = 629
	L2_cache_stats_breakdown[L1_WRBK_ACC][MISS] = 255
	L2_cache_stats_breakdown[L1_WRBK_ACC][RESERVATION_FAIL] = 45
	L2_cache_stats_breakdown[INST_ACC_R][HIT] = 55059
	L2_cache_stats_breakdown[INST_ACC_R][HIT_RESERVED] = 3374
	L2_cache_stats_breakdown[INST_ACC_R][MISS] = 1695
	L2_cache_stats_breakdown[INST_ACC_R][RESERVATION_FAIL] = 57376
L2_cache_data_port_util = 0.076
L2_cache_fill_port_util = 0.126

icnt_total_pkts_mem_to_simt=2116767
icnt_total_pkts_simt_to_mem=1811335
LD_mem_lat_dist  0 0 0 0 0 0 0 0 0 0 0 0 0 0 0 0 0 0 0 0 0 0 0 0 0 0 0
ST_mem_lat_dist  0 0 0 0 0 0 0 0 0 0 0 0 0 0 0 0 0 0 0 0 0 0 0 0 0 0 0
----------------------------Interconnect-DETAILS--------------------------------
Class 0:
Packet latency average = 16.6728
	minimum = 6
	maximum = 241
Network latency average = 13.064
	minimum = 6
	maximum = 212
Slowest packet = 1405975
Flit latency average = 12.3564
	minimum = 6
	maximum = 211
Slowest flit = 3875795
Fragmentation average = 0
	minimum = 0
	maximum = 0
Injected packet rate average = 0.0228442
	minimum = 0.0135997 (at node 5)
	maximum = 0.0282953 (at node 25)
Accepted packet rate average = 0.0228442
	minimum = 0.0135102 (at node 5)
	maximum = 0.0287427 (at node 16)
Injected flit rate average = 0.0609657
	minimum = 0.0286309 (at node 5)
	maximum = 0.0964726 (at node 25)
Accepted flit rate average= 0.0609657
	minimum = 0.0432147 (at node 5)
	maximum = 0.0845729 (at node 2)
Injected packet length average = 2.66876
Accepted packet length average = 2.66876
Total in-flight flits = 0 (0 measured)
====== Overall Traffic Statistics ======
====== Traffic class 0 ======
Packet latency average = 22.9841 (10 samples)
	minimum = 6 (10 samples)
	maximum = 461.5 (10 samples)
Network latency average = 17.2062 (10 samples)
	minimum = 6 (10 samples)
	maximum = 419.6 (10 samples)
Flit latency average = 16.1454 (10 samples)
	minimum = 6 (10 samples)
	maximum = 413.2 (10 samples)
Fragmentation average = 0.124886 (10 samples)
	minimum = 0 (10 samples)
	maximum = 253.5 (10 samples)
Injected packet rate average = 0.0383297 (10 samples)
	minimum = 0.0259193 (10 samples)
	maximum = 0.047993 (10 samples)
Accepted packet rate average = 0.0383297 (10 samples)
	minimum = 0.025879 (10 samples)
	maximum = 0.0481565 (10 samples)
Injected flit rate average = 0.104982 (10 samples)
	minimum = 0.056965 (10 samples)
	maximum = 0.149385 (10 samples)
Accepted flit rate average = 0.104982 (10 samples)
	minimum = 0.0735987 (10 samples)
	maximum = 0.1418 (10 samples)
Injected packet size average = 2.73891 (10 samples)
Accepted packet size average = 2.73891 (10 samples)
Hops average = 1 (10 samples)
----------------------------END-of-Interconnect-DETAILS-------------------------


gpgpu_simulation_time = 0 days, 0 hrs, 14 min, 44 sec (884 sec)
gpgpu_simulation_rate = 294733 (inst/sec)
gpgpu_simulation_rate = 1264 (cycle/sec)
fdwt53Kernel in launchFDWT53Kernel has finished
Writing to rgb.bmp.dwt.r (1024 x 1024)

Writing to rgb.bmp.dwt.g (1024 x 1024)

Writing to rgb.bmp.dwt.b (1024 x 1024)
